*-------------------------------------------------------------------------------------
*     6N2P    [modele Norman Koren parametres philbob]
*-------------------------------------------------------------------------------------
*.subckt 6N2P_philbob 1 2 3;(anode grille cathode)
*+ params:
*+ mu  = 100.539
*+ ex  = 1.29637
*+ kg1 = 1071.9
*+ kp  = 714.68
*+ kvb = 28483.8
*+ ccg = 4.5e-13
*+ cgp = 7e-13
*+ ccp = 5e-13
*e1 7 0 value=
*+{v(1,3)/kp*log(1+exp(kp*(1/mu+v(2,3)/sqrt(kvb+v(1,3)*v(1,3)))))}
*re1 7 0 1g
*g1 1 3 value= {(pwr(v(7),ex)+pwrs(v(7),ex))/kg1}
*rcp 1 3 1g
*c1 2 3 {ccg}
*c2 1 2 {cgp}
*c3 1 3 {ccp}
*.ends
*-------------------------------------------------------------------------------------
*-------------------------------------------------------------------------------------
*     6N2P    [modele Norman Koren parametres philbob]
*-------------------------------------------------------------------------------------
.subckt 6N2P_philbob 1 2 3;(anode grille cathode)
+ params:
+ mu  = 100.539
+ ex  = 1.29637
+ kg1 = 1071.9
+ kp  = 714.68
+ kvb = 28483.8
+ ccg = 4.5e-13
+ cgp = 7e-13
+ ccp = 5e-13
+ rgi = 2000
e1 7 0 value=
+{v(1,3)/kp*log(1+exp(kp*(1/mu+v(2,3)/sqrt(kvb+v(1,3)*v(1,3)))))}
re1 7 0 1g
g1 1 3 value= {(pwr(v(7),ex)+pwrs(v(7),ex))/kg1}
rcp 1 3 1g
c1 2 3 {ccg}
c2 1 2 {cgp}
c3 1 3 {ccp}
r1 2 5 {rgi}
d3 5 3 dx
.model dx d(is=1n rs=1 cjo=10pf tt=1n)
.ends
*-------------------------------------------------------------------------------------


