* EL360 PSpice model
.subckt EL360 P G K
Gp P K VALUE={(0.3524190389m)*limit(V(P,K)*log(1.0+(-0.06859204498)+exp((2.624540677)+(2.624540677)*((5.264539741)+(-20.87518491m)*V(G,K))*V(G,K)/sqrt((40.72821505)**2+(V(P,K)-(25.82179747))**2)))/(2.624540677),0.0,1.0e16)**(1.398000602)}
C1 G K 17.5P
C2 K P 7.7P
C3 G P 1.1P
D1 1 K DX
R1 G 1 200
.MODEL DX D(IS=1N RS=1 CJO=10PF TT=1N)
.ends
