Version 4
SHEET 1 2332 1392
WIRE -4016 -240 -4384 -240
WIRE -3904 -240 -4016 -240
WIRE -3648 -240 -3808 -240
WIRE -3808 -192 -3808 -240
WIRE -4384 -176 -4384 -240
WIRE -4496 -160 -4784 -160
WIRE -3904 -144 -3904 -240
WIRE -3856 -144 -3904 -144
WIRE -4496 -96 -4496 -160
WIRE -4784 -80 -4784 -160
WIRE -4784 -80 -4816 -80
WIRE -4736 -80 -4784 -80
WIRE -4640 -80 -4672 -80
WIRE -4544 -80 -4576 -80
WIRE -4384 -48 -4384 -112
WIRE -4384 -48 -4432 -48
WIRE -4320 -48 -4384 -48
WIRE -4160 -48 -4240 -48
WIRE -3840 -48 -3840 -96
WIRE -3696 -48 -3696 -80
WIRE -3696 -48 -3840 -48
WIRE -5440 -32 -5440 -80
WIRE -5344 -32 -5344 -80
WIRE -5232 -32 -5232 -80
WIRE -5136 -32 -5136 -96
WIRE -4016 32 -4016 -240
WIRE -3840 48 -3840 -48
WIRE -4480 80 -4480 0
WIRE -4416 80 -4480 80
WIRE -4160 80 -4160 -48
WIRE -4160 80 -4320 80
WIRE -5440 96 -5440 48
WIRE -5344 96 -5344 48
WIRE -5344 96 -5440 96
WIRE -5232 96 -5232 48
WIRE -5232 96 -5344 96
WIRE -5136 96 -5136 48
WIRE -5136 96 -5232 96
WIRE -5232 144 -5232 96
WIRE -4368 224 -4368 144
WIRE -4368 224 -4432 224
WIRE -4304 224 -4368 224
WIRE -4160 224 -4160 80
WIRE -4160 224 -4224 224
WIRE -4016 240 -4016 112
WIRE -3840 240 -3840 128
WIRE -3840 240 -4016 240
WIRE -4528 256 -4688 256
WIRE -3840 272 -3840 240
WIRE -4592 336 -4624 336
WIRE -4480 336 -4480 272
WIRE -4480 336 -4512 336
WIRE -4816 432 -4880 432
WIRE -4688 432 -4688 256
WIRE -4688 432 -4736 432
WIRE -4160 448 -4160 224
WIRE -4096 448 -4160 448
WIRE -3840 448 -3840 352
WIRE -3840 448 -3872 448
WIRE -3648 448 -3648 -240
WIRE -3648 448 -3680 448
WIRE -4624 480 -4624 336
WIRE -4624 480 -4640 480
WIRE -4592 480 -4624 480
WIRE -4480 480 -4512 480
WIRE -4448 480 -4480 480
WIRE -4480 512 -4480 480
WIRE -3840 528 -3840 448
WIRE -4480 624 -4480 592
WIRE -4688 640 -4688 432
WIRE -4528 640 -4688 640
WIRE -3840 640 -3840 608
WIRE -3840 640 -4000 640
WIRE -4368 672 -4432 672
WIRE -4304 672 -4368 672
WIRE -4160 672 -4160 448
WIRE -4160 672 -4224 672
WIRE -4000 704 -4000 640
WIRE -4368 752 -4368 672
WIRE -3840 752 -3840 640
WIRE -4416 816 -4480 816
WIRE -4160 816 -4160 672
WIRE -4160 816 -4320 816
WIRE -4480 896 -4480 816
WIRE -4384 944 -4432 944
WIRE -4320 944 -4384 944
WIRE -4160 944 -4160 816
WIRE -4160 944 -4240 944
WIRE -3840 944 -3840 832
WIRE -3696 944 -3840 944
WIRE -3696 960 -3696 944
WIRE -4784 976 -4816 976
WIRE -4736 976 -4784 976
WIRE -4640 976 -4672 976
WIRE -4544 976 -4576 976
WIRE -4384 1008 -4384 944
WIRE -3840 1008 -3840 944
WIRE -4784 1056 -4784 976
WIRE -4496 1056 -4496 992
WIRE -4496 1056 -4784 1056
WIRE -3856 1056 -3968 1056
WIRE -4384 1152 -4384 1072
WIRE -4000 1152 -4000 784
WIRE -4000 1152 -4384 1152
WIRE -3968 1152 -3968 1056
WIRE -3968 1152 -4000 1152
WIRE -3808 1152 -3808 1104
WIRE -3648 1152 -3648 448
WIRE -3648 1152 -3808 1152
FLAG -4448 480 input
IOPIN -4448 480 BiDir
FLAG -4640 480 0
FLAG -5232 144 0
FLAG -5344 -80 HT+400
IOPIN -5344 -80 Out
FLAG -5136 -96 input
IOPIN -5136 -96 BiDir
FLAG -4816 976 0
FLAG -4096 448 HT+400
IOPIN -4096 448 In
FLAG -4816 -80 0
FLAG -5232 -80 HT-130
IOPIN -5232 -80 Out
FLAG -5440 -80 HT+200
IOPIN -5440 -80 Out
FLAG -3680 448 HT+200
IOPIN -3680 448 In
FLAG -3872 448 HT-130
IOPIN -3872 448 In
FLAG -3696 -80 CF2
IOPIN -3696 -80 Out
FLAG -3696 960 CF1
IOPIN -3696 960 Out
FLAG -4880 432 HT-130
IOPIN -4880 432 In
SYMBOL res -4224 928 R90
WINDOW 0 0 56 VBottom 2
WINDOW 3 32 56 VTop 2
SYMATTR InstName R1
SYMATTR Value 56k
SYMBOL res -4208 688 M270
WINDOW 0 32 56 VTop 2
WINDOW 3 0 56 VBottom 2
SYMATTR InstName R2
SYMATTR Value 220k
SYMBOL res -4496 496 M270
WINDOW 0 32 56 VTop 2
WINDOW 3 0 56 VBottom 2
SYMATTR InstName R4
SYMATTR Value 10k
SYMBOL voltage -5344 -48 R0
WINDOW 123 0 0 Left 2
WINDOW 39 0 0 Left 2
SYMATTR InstName V1
SYMATTR Value 400
SYMBOL voltage -5136 -48 R0
WINDOW 123 24 44 Left 2
WINDOW 39 0 0 Left 2
SYMATTR Value2 AC 1 1
SYMATTR InstName V4
SYMATTR Value SINE(0 0.35 1k)
SYMBOL res -4464 608 R180
WINDOW 0 36 76 Left 2
WINDOW 3 36 40 Left 2
SYMATTR InstName R14
SYMATTR Value 1k
SYMBOL res -4224 -32 M270
WINDOW 0 32 56 VTop 2
WINDOW 3 0 56 VBottom 2
SYMATTR InstName R7
SYMATTR Value 56K
SYMBOL res -4208 208 R90
WINDOW 0 0 56 VBottom 2
WINDOW 3 32 56 VTop 2
SYMATTR InstName R8
SYMATTR Value 220k
SYMBOL diode -4576 -96 R90
WINDOW 0 0 32 VBottom 2
WINDOW 3 32 32 VTop 2
SYMATTR InstName D2
SYMATTR Value UF4007
SYMBOL diode -4576 960 R90
WINDOW 0 0 32 VBottom 2
WINDOW 3 32 32 VTop 2
SYMATTR InstName D3
SYMATTR Value UF4007
SYMBOL cap -4368 1072 R180
WINDOW 0 24 56 Left 2
WINDOW 3 24 8 Left 2
SYMATTR InstName C1
SYMATTR Value 1µ
SYMATTR SpiceLine V=100 Irms=4.58 Rser=0.025 Lser=0 mfg="KEMET" pn="C2225C105K1RAC" type="X7R"
SYMBOL cap -4368 -112 R180
WINDOW 0 24 56 Left 2
WINDOW 3 24 8 Left 2
SYMATTR InstName C2
SYMATTR Value 1µ
SYMATTR SpiceLine V=100 Irms=4.58 Rser=0.025 Lser=0 mfg="KEMET" pn="C2225C105K1RAC" type="X7R"
SYMBOL res -3984 800 R180
WINDOW 0 36 76 Left 2
WINDOW 3 36 40 Left 2
SYMATTR InstName R3
SYMATTR Value 470K
SYMBOL res -4000 128 R180
WINDOW 0 36 76 Left 2
WINDOW 3 36 40 Left 2
SYMATTR InstName R9
SYMATTR Value 470K
SYMBOL voltage -5232 64 M180
WINDOW 0 24 96 Left 2
WINDOW 3 24 16 Left 2
WINDOW 123 0 0 Left 2
WINDOW 39 0 0 Left 2
SYMATTR InstName V3
SYMATTR Value 130
SYMBOL voltage -5440 -48 R0
WINDOW 123 0 0 Left 2
WINDOW 39 0 0 Left 2
SYMATTR InstName V5
SYMATTR Value 200
SYMBOL res -3856 256 R0
SYMATTR InstName R15
SYMATTR Value 15K
SYMBOL res -3856 512 R0
SYMATTR InstName R16
SYMATTR Value 15K
SYMBOL valves\\triode -4480 224 M270
SYMATTR InstName U16
SYMATTR Value 12AX7
SYMBOL valves\\triode -4480 672 R90
SYMATTR InstName U17
SYMATTR Value 12AX7
SYMBOL valves\\triode -3808 -144 R0
SYMATTR InstName U18
SYMATTR Value 6F12PT
SYMBOL valves\\triode -3808 1056 M180
SYMATTR InstName U19
SYMATTR Value 6F12PT
SYMBOL npn -4320 144 M270
SYMATTR InstName Q1
SYMATTR Value MJE340
SYMBOL diode -4672 -96 R90
WINDOW 0 0 32 VBottom 2
WINDOW 3 32 32 VTop 2
SYMATTR InstName D1
SYMATTR Value UF4007
SYMBOL diode -4672 960 R90
WINDOW 0 0 32 VBottom 2
WINDOW 3 32 32 VTop 2
SYMATTR InstName D4
SYMATTR Value UF4007
SYMBOL valves\\tetrode_pentode -4480 -48 R90
SYMATTR InstName U20
SYMATTR Value 6F12PP
SYMBOL valves\\tetrode_pentode -4480 944 M270
SYMATTR InstName U21
SYMATTR Value 6F12PP
SYMBOL npn -4320 752 R90
SYMATTR InstName Q2
SYMATTR Value MJE340
SYMBOL res -3856 32 R0
SYMATTR InstName R6
SYMATTR Value 82
SYMBOL res -3856 736 R0
SYMATTR InstName R11
SYMATTR Value 82
SYMBOL res -4720 416 R90
WINDOW 0 0 56 VBottom 2
WINDOW 3 32 56 VTop 2
SYMATTR InstName R5
SYMATTR Value 58k
SYMBOL res -4496 320 R90
WINDOW 0 0 56 VBottom 2
WINDOW 3 32 56 VTop 2
SYMATTR InstName R10
SYMATTR Value 1k
TEXT -4224 360 Right 2 !.Fourrier 1000 V(CF1)
TEXT -4456 296 Left 2 !.tran 50m
TEXT -4456 392 Left 2 !.Fourrier 1000 V(CF2)
TEXT -4456 328 Left 2 !;ac oct 1000 1 1MEG
