Version 4
SHEET 1 880 680
WIRE 96 48 -80 48
WIRE 128 48 96 48
WIRE 240 48 240 16
WIRE 240 48 192 48
WIRE 304 48 240 48
WIRE 480 48 304 48
WIRE 592 48 480 48
WIRE -80 80 -80 48
WIRE 96 80 96 48
WIRE 240 96 240 48
WIRE 592 144 592 48
WIRE 304 160 304 48
WIRE 480 160 480 48
WIRE -80 192 -80 160
WIRE 240 192 240 160
WIRE 240 192 -80 192
WIRE 240 224 240 192
WIRE 96 304 96 144
WIRE 240 304 240 288
WIRE 240 304 96 304
WIRE 304 304 304 224
WIRE 304 304 240 304
WIRE 352 304 304 304
WIRE 480 304 480 224
WIRE 480 304 432 304
WIRE 592 304 592 224
WIRE 592 304 480 304
FLAG 240 16 0
SYMBOL voltage -80 64 M0
WINDOW 3 23 120 Left 2
WINDOW 123 24 152 Left 2
WINDOW 39 24 180 Left 2
SYMATTR InstName V1
SYMATTR Value SINE(0 17 50)
SYMATTR Value2 AC 1 1
SYMATTR SpiceLine Rser=2.35
SYMBOL diode 112 144 R180
WINDOW 0 24 64 Left 2
WINDOW 3 24 0 Left 2
SYMATTR InstName D2
SYMATTR Value 1N6513
SYMBOL diode 128 32 M90
WINDOW 0 0 32 VBottom 2
WINDOW 3 32 32 VTop 2
SYMATTR InstName D3
SYMATTR Value 1N6513
SYMBOL cap 224 96 R0
SYMATTR InstName C1
SYMATTR Value 100µ
SYMBOL cap 224 224 R0
SYMATTR InstName C2
SYMATTR Value 100µ
SYMBOL zener 496 224 R180
WINDOW 0 24 64 Left 2
WINDOW 3 20 90 Left 2
SYMATTR InstName D1
SYMATTR Value PH_BZX384-B20
SYMATTR Description Diode
SYMATTR Type diode
SYMBOL current 592 144 R0
WINDOW 123 0 0 Left 2
WINDOW 39 0 0 Left 2
SYMATTR InstName I1
SYMATTR Value PWL(0 0 1 40m)
SYMBOL cap 288 160 R0
SYMATTR InstName C3
SYMATTR Value 1000µ
SYMBOL res 448 288 R90
WINDOW 0 0 56 VBottom 2
WINDOW 3 32 56 VTop 2
SYMATTR InstName R1
SYMATTR Value 47
TEXT -24 -24 Left 2 !.tran 2s
