Version 4
SHEET 1 1540 680
WIRE 48 -496 -16 -496
WIRE 144 -496 48 -496
WIRE 256 -496 144 -496
WIRE 320 -496 256 -496
WIRE 432 -496 400 -496
WIRE 608 -496 432 -496
WIRE 720 -496 608 -496
WIRE 832 -496 720 -496
WIRE 976 -496 928 -496
WIRE 1072 -496 1072 -544
WIRE 1072 -496 976 -496
WIRE 1120 -496 1072 -496
WIRE 1264 -496 1216 -496
WIRE 1312 -496 1264 -496
WIRE 256 -448 256 -496
WIRE 608 -448 608 -496
WIRE 720 -448 720 -496
WIRE -80 -432 -80 -496
WIRE -80 -432 -240 -432
WIRE -688 -400 -688 -432
WIRE -80 -400 -80 -432
WIRE 16 -400 -16 -400
WIRE 144 -400 144 -496
WIRE 976 -400 976 -496
WIRE 1264 -400 1264 -496
WIRE 432 -352 432 -496
WIRE 256 -336 256 -368
WIRE 304 -336 256 -336
WIRE -832 -320 -832 -432
WIRE -832 -320 -896 -320
WIRE -768 -320 -832 -320
WIRE -736 -320 -768 -320
WIRE 256 -320 256 -336
WIRE 720 -320 720 -368
WIRE 48 -304 48 -496
WIRE 48 -304 -16 -304
WIRE -688 -288 -688 -304
WIRE -544 -288 -688 -288
WIRE -896 -272 -896 -320
WIRE 608 -272 608 -384
WIRE 656 -272 608 -272
WIRE -688 -256 -688 -288
WIRE -240 -256 -240 -352
WIRE -80 -256 -80 -304
WIRE -80 -256 -240 -256
WIRE -768 -224 -768 -320
WIRE -544 -208 -544 -288
WIRE -80 -208 -80 -256
WIRE 16 -208 16 -400
WIRE 16 -208 -16 -208
WIRE 144 -208 144 -336
WIRE 144 -208 16 -208
WIRE 256 -208 256 -256
WIRE 256 -208 144 -208
WIRE 432 -208 432 -288
WIRE 432 -208 256 -208
WIRE 608 -208 608 -272
WIRE 720 -208 720 -224
WIRE 768 -208 720 -208
WIRE 912 -208 912 -448
WIRE 912 -208 848 -208
WIRE 976 -208 976 -336
WIRE 976 -208 912 -208
WIRE 1200 -208 1200 -448
WIRE 1264 -208 1264 -336
WIRE 1264 -208 1200 -208
WIRE -992 -192 -992 -432
WIRE 720 -192 720 -208
WIRE -688 -160 -688 -192
WIRE 912 -160 912 -208
WIRE 720 -80 720 -112
WIRE 1040 -80 720 -80
WIRE 1200 -80 1200 -208
WIRE 1200 -80 1120 -80
WIRE 720 -64 720 -80
WIRE 1200 -48 1200 -80
WIRE -992 -32 -992 -112
WIRE -896 -32 -896 -192
WIRE -896 -32 -992 -32
WIRE -880 -32 -896 -32
WIRE -768 -32 -768 -144
WIRE -768 -32 -800 -32
WIRE -688 -32 -688 -80
WIRE -688 -32 -768 -32
WIRE -544 -32 -544 -128
WIRE -544 -32 -688 -32
WIRE -688 0 -688 -32
WIRE -896 48 -896 -32
WIRE 96 48 -80 48
WIRE 128 48 96 48
WIRE 240 48 240 16
WIRE 240 48 192 48
WIRE 416 48 240 48
WIRE 432 48 432 -208
WIRE 432 48 416 48
WIRE 528 48 432 48
WIRE 608 48 608 -128
WIRE 608 48 528 48
WIRE 656 48 608 48
WIRE 720 48 720 16
WIRE 720 48 656 48
WIRE 784 48 720 48
WIRE 912 48 912 -96
WIRE 912 48 784 48
WIRE 1200 48 1200 16
WIRE 1200 48 912 48
WIRE 656 64 656 48
WIRE -80 80 -80 48
WIRE 96 80 96 48
WIRE 528 80 528 48
WIRE 240 96 240 48
WIRE 784 144 784 48
WIRE 416 160 416 48
WIRE 528 176 528 144
WIRE 656 176 656 144
WIRE 656 176 528 176
WIRE -80 192 -80 160
WIRE 240 192 240 160
WIRE 240 192 -80 192
WIRE 656 208 656 176
WIRE 240 224 240 192
WIRE 528 256 528 176
WIRE 96 304 96 144
WIRE 240 304 240 288
WIRE 240 304 96 304
WIRE 288 304 240 304
WIRE 416 304 416 224
WIRE 416 304 368 304
WIRE 464 304 416 304
WIRE 656 304 656 288
WIRE 656 304 592 304
WIRE 784 304 784 208
WIRE 784 304 656 304
WIRE 832 304 784 304
FLAG 240 16 0
FLAG 304 -336 +320
IOPIN 304 -336 Out
FLAG 832 304 V-
IOPIN 832 304 In
FLAG -992 -432 +330
IOPIN -992 -432 In
FLAG 1312 -496 +200
IOPIN 1312 -496 Out
FLAG -688 -432 +320
IOPIN -688 -432 In
FLAG -688 0 0
FLAG -832 -432 +200
IOPIN -832 -432 In
FLAG -896 48 V-
IOPIN -896 48 Out
FLAG 1072 -544 +330
IOPIN 1072 -544 Out
SYMBOL voltage -80 64 M0
WINDOW 3 23 120 Left 2
WINDOW 123 24 152 Left 2
WINDOW 39 24 180 Left 2
SYMATTR Value SINE(0 17 50 0 0 0 3800)
SYMATTR Value2 AC 1 1
SYMATTR SpiceLine Rser=2.35
SYMATTR InstName V1
SYMBOL diode 112 144 R180
WINDOW 0 24 64 Left 2
WINDOW 3 24 0 Left 2
SYMATTR InstName D2
SYMATTR Value 1N6513
SYMBOL diode 128 32 M90
WINDOW 0 0 32 VBottom 2
WINDOW 3 32 32 VTop 2
SYMATTR InstName D3
SYMATTR Value 1N6513
SYMBOL cap 224 96 R0
SYMATTR InstName C1
SYMATTR Value 100
SYMATTR SpiceLine Rser=2
SYMBOL cap 224 224 R0
SYMATTR InstName C2
SYMATTR Value 100
SYMATTR SpiceLine Rser=2
SYMBOL cap 400 160 R0
SYMATTR InstName C3
SYMATTR Value 1m
SYMATTR SpiceLine Rser=2
SYMBOL voltage -240 -448 M0
WINDOW 3 23 120 Left 2
WINDOW 123 24 152 Left 2
WINDOW 39 24 180 Left 2
SYMATTR Value SINE(0 420 50 0 0 0 3800)
SYMATTR Value2 AC 1 1
SYMATTR SpiceLine Rser=41.4
SYMATTR InstName V2
SYMBOL diode -80 -512 M90
WINDOW 0 0 32 VBottom 2
WINDOW 3 32 32 VTop 2
SYMATTR InstName D4
SYMATTR Value 1N6513
SYMBOL diode -16 -416 R90
WINDOW 0 0 32 VBottom 2
WINDOW 3 32 32 VTop 2
SYMATTR InstName D5
SYMATTR Value 1N6513
SYMBOL diode -80 -288 R270
WINDOW 0 32 32 VTop 2
WINDOW 3 0 32 VBottom 2
SYMATTR InstName D6
SYMATTR Value 1N6513
SYMBOL diode -16 -192 M270
WINDOW 0 32 32 VTop 2
WINDOW 3 0 32 VBottom 2
SYMATTR InstName D7
SYMATTR Value 1N6513
SYMBOL cap 128 -400 R0
SYMATTR InstName C4
SYMATTR Value 100
SYMATTR SpiceLine Rser=2
SYMBOL res 240 -464 R0
SYMATTR InstName R2
SYMATTR Value 270
SYMBOL cap 272 -256 R180
WINDOW 0 24 56 Left 2
WINDOW 3 24 8 Left 2
SYMATTR InstName C6
SYMATTR Value 200
SYMATTR SpiceLine Rser=1
SYMBOL zener 624 -384 R180
WINDOW 0 24 64 Left 2
WINDOW 3 24 0 Left 2
SYMATTR InstName D8
SYMATTR Value BZX384B6V2
SYMATTR Description Diode
SYMATTR Type diode
SYMBOL res 704 -464 R0
SYMATTR InstName R3
SYMATTR Value 4.9k
SYMBOL pnp 656 -224 M180
SYMATTR InstName Q2
SYMATTR Value MJE350
SYMBOL res 592 -224 R0
SYMATTR InstName R4
SYMATTR Value 180k
SYMBOL res 704 -208 R0
SYMATTR InstName R5
SYMATTR Value 120k
SYMBOL res 704 -80 R0
SYMATTR InstName R6
SYMATTR Value 180k
SYMBOL res 864 -224 R90
WINDOW 0 0 56 VBottom 2
WINDOW 3 32 56 VTop 2
SYMATTR InstName R7
SYMATTR Value 100k
SYMBOL cap 896 -160 R0
SYMATTR InstName C7
SYMATTR Value 4.7
SYMBOL Misc\\IRF820 832 -448 R270
SYMATTR InstName U1
SYMBOL zener 960 -400 R0
SYMATTR InstName D9
SYMATTR Value BZX384B9V1
SYMATTR Description Diode
SYMATTR Type diode
SYMBOL res 416 -512 R90
WINDOW 0 0 56 VBottom 2
WINDOW 3 32 56 VTop 2
SYMATTR InstName R9
SYMATTR Value 75
SYMBOL cap 416 -352 R0
SYMATTR InstName C5
SYMATTR Value 50
SYMATTR SpiceLine Rser=.5
SYMBOL res 384 288 R90
WINDOW 0 0 56 VBottom 2
WINDOW 3 32 56 VTop 2
SYMATTR InstName R1
SYMATTR Value 15
SYMBOL Misc\\lm337 528 304 M180
SYMATTR InstName U2
SYMBOL res 640 48 R0
SYMATTR InstName R10
SYMATTR Value 7100
SYMBOL res 640 192 R0
SYMATTR InstName R11
SYMATTR Value 470
SYMBOL cap 512 80 R0
SYMATTR InstName C9
SYMATTR Value 4.7
SYMATTR SpiceLine Rser=3
SYMBOL cap 768 144 R0
SYMATTR InstName C10
SYMATTR Value 4.7
SYMATTR SpiceLine Rser=3
SYMBOL cap 1184 -48 R0
SYMATTR InstName C8
SYMATTR Value 15
SYMBOL Misc\\IRF820 1120 -448 R270
SYMATTR InstName U3
SYMBOL zener 1248 -400 R0
SYMATTR InstName D1
SYMATTR Value BZX384B9V1
SYMATTR Description Diode
SYMATTR Type diode
SYMBOL res 1136 -96 R90
WINDOW 0 0 56 VBottom 2
WINDOW 3 32 56 VTop 2
SYMATTR InstName R8
SYMATTR Value 100k
SYMBOL Misc\\IRF820 -736 -400 R0
SYMATTR InstName U4
SYMBOL zener -704 -192 M180
WINDOW 0 24 64 Left 2
WINDOW 3 24 0 Left 2
SYMATTR InstName D10
SYMATTR Value 1N5378B
SYMATTR Description Diode
SYMATTR Type diode
SYMBOL res -704 -176 R0
SYMATTR InstName R12
SYMATTR Value 450
SYMBOL res -784 -48 R90
WINDOW 0 0 56 VBottom 2
WINDOW 3 32 56 VTop 2
SYMATTR InstName R14
SYMATTR Value 1785
SYMBOL current -544 -208 R0
WINDOW 123 0 0 Left 2
WINDOW 39 0 0 Left 2
SYMATTR InstName I4
SYMATTR Value PULSE(0m 100m 60 5u 5u 590u 1m 5000)
SYMBOL res -784 -240 R0
SYMATTR InstName R13
SYMATTR Value 19.6k
SYMBOL res -912 -288 R0
SYMATTR InstName R15
SYMATTR Value 10.57k
SYMBOL res -1008 -208 R0
SYMATTR InstName R16
SYMATTR Value 23.3k
TEXT -24 -24 Left 2 !.tran 80s
