Version 4
SHEET 1 1540 680
WIRE 192 -496 128 -496
WIRE 288 -496 192 -496
WIRE 432 -496 288 -496
WIRE 608 -496 432 -496
WIRE 720 -496 608 -496
WIRE 832 -496 720 -496
WIRE 976 -496 928 -496
WIRE 1072 -496 976 -496
WIRE 432 -464 432 -496
WIRE 608 -448 608 -496
WIRE 720 -448 720 -496
WIRE 64 -432 64 -496
WIRE 64 -432 -96 -432
WIRE 64 -400 64 -432
WIRE 160 -400 128 -400
WIRE 288 -400 288 -496
WIRE 976 -400 976 -496
WIRE 368 -352 336 -352
WIRE 432 -352 432 -384
WIRE 720 -320 720 -368
WIRE 192 -304 192 -496
WIRE 192 -304 128 -304
WIRE 432 -304 432 -352
WIRE 1072 -288 1072 -496
WIRE 608 -272 608 -384
WIRE 656 -272 608 -272
WIRE -96 -256 -96 -352
WIRE 64 -256 64 -304
WIRE 64 -256 -96 -256
WIRE 64 -208 64 -256
WIRE 160 -208 160 -400
WIRE 160 -208 128 -208
WIRE 288 -208 288 -336
WIRE 288 -208 160 -208
WIRE 336 -208 336 -352
WIRE 336 -208 288 -208
WIRE 432 -208 432 -224
WIRE 432 -208 336 -208
WIRE 608 -208 608 -272
WIRE 720 -208 720 -224
WIRE 768 -208 720 -208
WIRE 912 -208 912 -448
WIRE 912 -208 848 -208
WIRE 928 -208 912 -208
WIRE 976 -208 976 -336
WIRE 976 -208 928 -208
WIRE 720 -192 720 -208
WIRE 928 -160 928 -208
WIRE 720 -80 720 -112
WIRE 768 -80 720 -80
WIRE 864 -80 848 -80
WIRE 720 -64 720 -80
WIRE 864 -48 864 -80
WIRE 96 48 -80 48
WIRE 128 48 96 48
WIRE 240 48 240 16
WIRE 240 48 192 48
WIRE 416 48 240 48
WIRE 432 48 432 -208
WIRE 432 48 416 48
WIRE 544 48 432 48
WIRE 608 48 608 -128
WIRE 608 48 544 48
WIRE 720 48 720 16
WIRE 720 48 608 48
WIRE 832 48 720 48
WIRE 864 48 864 16
WIRE 864 48 832 48
WIRE 928 48 928 -96
WIRE 928 48 864 48
WIRE 1072 48 1072 -208
WIRE 1072 48 928 48
WIRE -80 80 -80 48
WIRE 96 80 96 48
WIRE 240 96 240 48
WIRE 544 96 544 48
WIRE 832 144 832 48
WIRE 416 160 416 48
WIRE 544 176 544 160
WIRE 672 176 544 176
WIRE -80 192 -80 160
WIRE 240 192 240 160
WIRE 240 192 -80 192
WIRE 544 208 544 176
WIRE 240 224 240 192
WIRE 672 240 672 176
WIRE 96 304 96 144
WIRE 240 304 240 288
WIRE 240 304 96 304
WIRE 416 304 416 224
WIRE 416 304 240 304
WIRE 544 304 544 288
WIRE 544 304 416 304
WIRE 624 304 544 304
WIRE 832 304 832 224
WIRE 832 304 720 304
FLAG 240 16 0
SYMBOL voltage -80 64 M0
WINDOW 3 23 120 Left 2
WINDOW 123 24 152 Left 2
WINDOW 39 24 180 Left 2
SYMATTR Value SINE(0 17 50 0 0 0 1900)
SYMATTR Value2 AC 1 1
SYMATTR SpiceLine Rser=2.35
SYMATTR InstName V1
SYMBOL diode 112 144 R180
WINDOW 0 24 64 Left 2
WINDOW 3 24 0 Left 2
SYMATTR InstName D2
SYMATTR Value 1N6513
SYMBOL diode 128 32 M90
WINDOW 0 0 32 VBottom 2
WINDOW 3 32 32 VTop 2
SYMATTR InstName D3
SYMATTR Value 1N6513
SYMBOL cap 224 96 R0
SYMATTR InstName C1
SYMATTR Value 100
SYMATTR SpiceLine Rser=2
SYMBOL cap 224 224 R0
SYMATTR InstName C2
SYMATTR Value 100
SYMATTR SpiceLine Rser=2
SYMBOL zener 560 160 R180
WINDOW 0 24 64 Left 2
WINDOW 3 20 90 Left 2
SYMATTR InstName D1
SYMATTR Value PH_BZX384-B20
SYMATTR Description Diode
SYMATTR Type diode
SYMBOL current 832 144 R0
WINDOW 123 0 0 Left 2
WINDOW 39 0 0 Left 2
SYMATTR InstName I1
SYMATTR Value PWL(0 0 1 0 5 50m)
SYMBOL cap 400 160 R0
SYMATTR InstName C3
SYMATTR Value 1m
SYMATTR SpiceLine Rser=2
SYMBOL res 560 304 R180
WINDOW 0 36 76 Left 2
WINDOW 3 36 40 Left 2
SYMATTR InstName R1
SYMATTR Value 390
SYMBOL pnp 624 240 M90
SYMATTR InstName Q1
SYMATTR Value 2N5087
SYMBOL voltage -96 -448 M0
WINDOW 3 23 120 Left 2
WINDOW 123 24 152 Left 2
WINDOW 39 24 180 Left 2
SYMATTR Value SINE(0 420 50 0 0 0 1900)
SYMATTR Value2 AC 1 1
SYMATTR SpiceLine Rser=25
SYMATTR InstName V2
SYMBOL diode 64 -512 M90
WINDOW 0 0 32 VBottom 2
WINDOW 3 32 32 VTop 2
SYMATTR InstName D4
SYMATTR Value 1N6513
SYMBOL diode 128 -416 R90
WINDOW 0 0 32 VBottom 2
WINDOW 3 32 32 VTop 2
SYMATTR InstName D5
SYMATTR Value 1N6513
SYMBOL diode 64 -288 R270
WINDOW 0 32 32 VTop 2
WINDOW 3 0 32 VBottom 2
SYMATTR InstName D6
SYMATTR Value 1N6513
SYMBOL diode 128 -192 M270
WINDOW 0 32 32 VTop 2
WINDOW 3 0 32 VBottom 2
SYMATTR InstName D7
SYMATTR Value 1N6513
SYMBOL cap 272 -400 R0
SYMATTR InstName C4
SYMATTR Value 50
SYMBOL current 432 -304 R0
WINDOW 123 0 0 Left 2
WINDOW 39 0 0 Left 2
SYMATTR InstName I2
SYMATTR Value 192m
SYMBOL res 416 -480 R0
SYMATTR InstName R2
SYMATTR Value 270
SYMBOL cap 432 -368 R90
WINDOW 0 0 32 VBottom 2
WINDOW 3 32 32 VTop 2
SYMATTR InstName C6
SYMATTR Value 200
SYMBOL zener 624 -384 R180
WINDOW 0 24 64 Left 2
WINDOW 3 24 0 Left 2
SYMATTR InstName D8
SYMATTR Value BZX384B6V2
SYMATTR Description Diode
SYMATTR Type diode
SYMBOL res 704 -464 R0
SYMATTR InstName R3
SYMATTR Value 4.9k
SYMBOL pnp 656 -224 M180
SYMATTR InstName Q2
SYMATTR Value MJE350
SYMBOL res 592 -224 R0
SYMATTR InstName R4
SYMATTR Value 180k
SYMBOL res 704 -208 R0
SYMATTR InstName R5
SYMATTR Value 91k
SYMBOL res 704 -80 R0
SYMATTR InstName R6
SYMATTR Value 180k
SYMBOL res 864 -224 R90
WINDOW 0 0 56 VBottom 2
WINDOW 3 32 56 VTop 2
SYMATTR InstName R7
SYMATTR Value 100k
SYMBOL cap 912 -160 R0
SYMATTR InstName C7
SYMATTR Value 15
SYMBOL Misc\\IRF820 832 -448 R270
SYMATTR InstName U1
SYMBOL current 1072 -288 R0
WINDOW 123 0 0 Left 2
WINDOW 39 0 0 Left 2
SYMATTR InstName I3
SYMATTR Value PWL(0 0 5 4m 20 60m 38 60m 50 0)
SYMBOL res 864 -96 R90
WINDOW 0 0 56 VBottom 2
WINDOW 3 32 56 VTop 2
SYMATTR InstName R8
SYMATTR Value 10k
SYMBOL cap 848 -48 R0
SYMATTR InstName C8
SYMATTR Value 22
SYMBOL zener 960 -400 R0
SYMATTR InstName D9
SYMATTR Value BZX384B9V1
SYMATTR Description Diode
SYMATTR Type diode
TEXT -24 -24 Left 2 !.tran 40s
