Version 4
SHEET 1 1104 680
WIRE 96 48 -80 48
WIRE 128 48 96 48
WIRE 240 48 240 16
WIRE 240 48 192 48
WIRE 416 48 240 48
WIRE 544 48 416 48
WIRE 832 48 544 48
WIRE 928 48 832 48
WIRE -80 80 -80 48
WIRE 96 80 96 48
WIRE 240 96 240 48
WIRE 544 96 544 48
WIRE 832 144 832 48
WIRE 928 144 928 48
WIRE 416 160 416 48
WIRE 544 176 544 160
WIRE 672 176 544 176
WIRE -80 192 -80 160
WIRE 240 192 240 160
WIRE 240 192 -80 192
WIRE 544 208 544 176
WIRE 240 224 240 192
WIRE 672 240 672 176
WIRE 96 304 96 144
WIRE 240 304 240 288
WIRE 240 304 96 304
WIRE 416 304 416 224
WIRE 416 304 240 304
WIRE 544 304 544 288
WIRE 544 304 416 304
WIRE 624 304 544 304
WIRE 832 304 832 224
WIRE 832 304 720 304
WIRE 928 304 928 208
WIRE 928 304 832 304
FLAG 240 16 0
SYMBOL voltage -80 64 M0
WINDOW 3 23 120 Left 2
WINDOW 123 24 152 Left 2
WINDOW 39 24 180 Left 2
SYMATTR Value SINE(0 17 50)
SYMATTR Value2 AC 1 1
SYMATTR SpiceLine Rser=2.35
SYMATTR InstName V1
SYMBOL diode 112 144 R180
WINDOW 0 24 64 Left 2
WINDOW 3 24 0 Left 2
SYMATTR InstName D2
SYMATTR Value 1N6513
SYMBOL diode 128 32 M90
WINDOW 0 0 32 VBottom 2
WINDOW 3 32 32 VTop 2
SYMATTR InstName D3
SYMATTR Value 1N6513
SYMBOL cap 224 96 R0
SYMATTR InstName C1
SYMATTR Value 100µ
SYMATTR SpiceLine Rser=2
SYMBOL cap 224 224 R0
SYMATTR InstName C2
SYMATTR Value 100µ
SYMATTR SpiceLine Rser=2
SYMBOL zener 560 160 R180
WINDOW 0 24 64 Left 2
WINDOW 3 20 90 Left 2
SYMATTR InstName D1
SYMATTR Value PH_BZX384-B20
SYMATTR Description Diode
SYMATTR Type diode
SYMBOL current 832 144 R0
WINDOW 123 0 0 Left 2
WINDOW 39 0 0 Left 2
SYMATTR InstName I1
SYMATTR Value PWL(0 0 1 0 5 60m)
SYMBOL cap 400 160 R0
SYMATTR InstName C3
SYMATTR Value 1m
SYMATTR SpiceLine Rser=2
SYMBOL res 560 304 R180
WINDOW 0 36 76 Left 2
WINDOW 3 36 40 Left 2
SYMATTR InstName R1
SYMATTR Value 390
SYMBOL cap 912 144 R0
SYMATTR InstName C5
SYMATTR Value 470n
SYMBOL pnp 624 240 M90
SYMATTR InstName Q1
SYMATTR Value 2N5087
TEXT -24 -24 Left 2 !.tran 10s
