Version 4
SHEET 1 1800 884
WIRE 48 -496 -16 -496
WIRE 144 -496 48 -496
WIRE 256 -496 144 -496
WIRE 304 -496 256 -496
WIRE 416 -496 384 -496
WIRE 528 -496 416 -496
WIRE 656 -496 528 -496
WIRE 864 -496 656 -496
WIRE 976 -496 864 -496
WIRE 1056 -496 976 -496
WIRE 1200 -496 1200 -560
WIRE 1200 -496 1152 -496
WIRE 1232 -496 1200 -496
WIRE 1376 -496 1376 -560
WIRE 1376 -496 1328 -496
WIRE 256 -464 256 -496
WIRE 864 -448 864 -496
WIRE 976 -448 976 -496
WIRE -80 -432 -80 -496
WIRE -80 -432 -240 -432
WIRE -80 -400 -80 -432
WIRE 16 -400 -16 -400
WIRE 1200 -400 1200 -496
WIRE 1376 -400 1376 -496
WIRE -240 -384 -240 -432
WIRE 144 -384 144 -496
WIRE 416 -384 416 -496
WIRE -752 -352 -752 -384
WIRE 256 -352 256 -384
WIRE 304 -352 256 -352
WIRE 528 -352 528 -496
WIRE 656 -336 656 -496
WIRE 256 -320 256 -352
WIRE 976 -320 976 -368
WIRE 48 -304 48 -496
WIRE 48 -304 -16 -304
WIRE -1104 -272 -1104 -384
WIRE -1104 -272 -1168 -272
WIRE -1040 -272 -1104 -272
WIRE -1008 -272 -1040 -272
WIRE -880 -272 -928 -272
WIRE -800 -272 -880 -272
WIRE 864 -272 864 -384
WIRE 912 -272 864 -272
WIRE -240 -256 -240 -304
WIRE -80 -256 -80 -304
WIRE -80 -256 -240 -256
WIRE -880 -240 -880 -272
WIRE -832 -240 -880 -240
WIRE -752 -240 -752 -256
WIRE -752 -240 -768 -240
WIRE -608 -240 -752 -240
WIRE -1168 -224 -1168 -272
WIRE -752 -208 -752 -240
WIRE -80 -208 -80 -256
WIRE 16 -208 16 -400
WIRE 16 -208 -16 -208
WIRE 144 -208 144 -320
WIRE 144 -208 16 -208
WIRE 256 -208 256 -256
WIRE 256 -208 144 -208
WIRE 416 -208 416 -320
WIRE 416 -208 256 -208
WIRE 656 -208 656 -256
WIRE 864 -208 864 -272
WIRE 976 -208 976 -224
WIRE 1024 -208 976 -208
WIRE 1136 -208 1136 -448
WIRE 1136 -208 1104 -208
WIRE 1200 -208 1200 -336
WIRE 1200 -208 1136 -208
WIRE 1312 -208 1312 -448
WIRE 1376 -208 1376 -336
WIRE 1376 -208 1312 -208
WIRE 976 -192 976 -208
WIRE -1040 -176 -1040 -272
WIRE -608 -160 -608 -240
WIRE 1136 -160 1136 -208
WIRE -1264 -144 -1264 -384
WIRE 528 -128 528 -272
WIRE 608 -128 528 -128
WIRE -752 -112 -752 -144
WIRE -880 -96 -880 -240
WIRE 528 -80 528 -128
WIRE 864 -80 864 -128
WIRE 976 -80 976 -112
WIRE 1184 -80 976 -80
WIRE 1312 -80 1312 -208
WIRE 1312 -80 1264 -80
WIRE 976 -64 976 -80
WIRE 1312 -48 1312 -80
WIRE -1264 16 -1264 -64
WIRE -1168 16 -1168 -144
WIRE -1168 16 -1264 16
WIRE -1152 16 -1168 16
WIRE -1040 16 -1040 -96
WIRE -1040 16 -1072 16
WIRE -880 16 -880 -32
WIRE -880 16 -1040 16
WIRE -752 16 -752 -32
WIRE -752 16 -880 16
WIRE -608 16 -608 -80
WIRE -608 16 -752 16
WIRE -752 48 -752 16
WIRE 96 48 -80 48
WIRE 128 48 96 48
WIRE 240 48 240 16
WIRE 240 48 192 48
WIRE 416 48 416 -208
WIRE 416 48 240 48
WIRE 528 48 528 0
WIRE 528 48 416 48
WIRE 656 48 656 -112
WIRE 656 48 528 48
WIRE 864 48 864 -16
WIRE 864 48 656 48
WIRE 976 48 976 16
WIRE 976 48 864 48
WIRE 1136 48 1136 -96
WIRE 1136 48 976 48
WIRE 1312 48 1312 16
WIRE 1312 48 1136 48
WIRE 656 64 656 48
WIRE -80 80 -80 48
WIRE 96 80 96 48
WIRE 528 80 528 48
WIRE -1168 96 -1168 16
WIRE 240 96 240 48
WIRE 416 144 416 48
WIRE 864 144 864 48
WIRE 528 176 528 144
WIRE 656 176 656 144
WIRE 656 176 528 176
WIRE 752 176 656 176
WIRE -80 192 -80 160
WIRE 240 192 240 160
WIRE 240 192 -80 192
WIRE 656 208 656 176
WIRE 752 208 752 176
WIRE 240 224 240 192
WIRE 528 256 528 176
WIRE 96 304 96 144
WIRE 240 304 240 288
WIRE 240 304 96 304
WIRE 288 304 240 304
WIRE 416 304 416 208
WIRE 416 304 368 304
WIRE 464 304 416 304
WIRE 656 304 656 288
WIRE 656 304 592 304
WIRE 752 304 752 272
WIRE 752 304 656 304
WIRE 864 304 864 208
WIRE 864 304 752 304
WIRE 912 304 864 304
FLAG 240 16 0
FLAG 304 -352 +320
IOPIN 304 -352 Out
FLAG 912 304 V-
IOPIN 912 304 In
FLAG -1264 -384 +330
IOPIN -1264 -384 In
FLAG 1376 -560 +200
IOPIN 1376 -560 Out
FLAG -752 -384 +320
IOPIN -752 -384 In
FLAG -752 48 0
FLAG -1104 -384 +200
IOPIN -1104 -384 In
FLAG -1168 96 V-
IOPIN -1168 96 Out
FLAG 1200 -560 +330
IOPIN 1200 -560 Out
FLAG 944 -208 ref
SYMBOL voltage -80 64 M0
WINDOW 3 23 120 Left 2
WINDOW 123 24 152 Left 2
WINDOW 39 24 180 Left 2
SYMATTR Value SINE(0 17 50 0 0 0 3800)
SYMATTR Value2 AC 1 1
SYMATTR SpiceLine Rser=2.35
SYMATTR InstName V1
SYMBOL schottky 128 32 M90
WINDOW 0 0 32 VBottom 2
WINDOW 3 32 32 VTop 2
SYMATTR InstName D3
SYMATTR Value 1N5819
SYMATTR Description Diode
SYMATTR Type diode
SYMBOL cap 224 96 R0
SYMATTR InstName C1
SYMATTR Value 100
SYMATTR SpiceLine Rser=2
SYMBOL cap 224 224 R0
SYMATTR InstName C2
SYMATTR Value 100
SYMATTR SpiceLine Rser=2
SYMBOL cap 400 144 R0
SYMATTR InstName C3
SYMATTR Value 1m
SYMATTR SpiceLine Rser=2
SYMBOL voltage -240 -400 M0
WINDOW 3 23 120 Left 2
WINDOW 123 24 152 Left 2
WINDOW 39 24 180 Left 2
SYMATTR Value SINE(0 420 50 0 0 0 3800)
SYMATTR Value2 AC 1 1
SYMATTR SpiceLine Rser=41.4
SYMATTR InstName V2
SYMBOL diode -80 -512 M90
WINDOW 0 0 32 VBottom 2
WINDOW 3 32 32 VTop 2
SYMATTR InstName D4
SYMATTR Value 1N6513
SYMBOL diode -16 -416 R90
WINDOW 0 0 32 VBottom 2
WINDOW 3 32 32 VTop 2
SYMATTR InstName D5
SYMATTR Value 1N6513
SYMBOL diode -80 -288 R270
WINDOW 0 32 32 VTop 2
WINDOW 3 0 32 VBottom 2
SYMATTR InstName D6
SYMATTR Value 1N6513
SYMBOL diode -16 -192 M270
WINDOW 0 32 32 VTop 2
WINDOW 3 0 32 VBottom 2
SYMATTR InstName D7
SYMATTR Value 1N6513
SYMBOL cap 128 -384 R0
SYMATTR InstName C4
SYMATTR Value 100
SYMATTR SpiceLine Rser=2
SYMBOL res 240 -480 R0
SYMATTR InstName R2
SYMATTR Value 270
SYMBOL cap 272 -256 R180
WINDOW 0 24 56 Left 2
WINDOW 3 24 8 Left 2
SYMATTR InstName C6
SYMATTR Value 200
SYMATTR SpiceLine Rser=1
SYMBOL res 960 -464 R0
SYMATTR InstName R3
SYMATTR Value 910
SYMBOL pnp 912 -224 M180
SYMATTR InstName Q2
SYMATTR Value MJE350
SYMBOL res 880 -224 M0
SYMATTR InstName R4
SYMATTR Value 180k
SYMBOL res 960 -208 R0
SYMATTR InstName R5
SYMATTR Value 110k
SYMBOL res 960 -80 R0
SYMATTR InstName R6
SYMATTR Value 180k
SYMBOL res 1120 -224 R90
WINDOW 0 0 56 VBottom 2
WINDOW 3 41 56 VTop 2
SYMATTR InstName R7
SYMATTR Value 100k
SYMBOL cap 1120 -160 R0
SYMATTR InstName C7
SYMATTR Value 4.7
SYMBOL Misc\\IRF820 1056 -448 R270
SYMATTR InstName U1
SYMBOL zener 1184 -400 R0
SYMATTR InstName D9
SYMATTR Value BZX384B9V1
SYMATTR Description Diode
SYMATTR Type diode
SYMBOL res 400 -512 R90
WINDOW 0 0 56 VBottom 2
WINDOW 3 32 56 VTop 2
SYMATTR InstName R9
SYMATTR Value 75
SYMBOL cap 400 -384 R0
SYMATTR InstName C5
SYMATTR Value 50
SYMATTR SpiceLine Rser=.5
SYMBOL res 384 288 R90
WINDOW 0 0 56 VBottom 2
WINDOW 3 32 56 VTop 2
SYMATTR InstName R1
SYMATTR Value 1
SYMBOL Misc\\lm337 528 304 M180
SYMATTR InstName U2
SYMBOL res 640 48 R0
SYMATTR InstName R10
SYMATTR Value 1800
SYMBOL res 640 192 R0
SYMATTR InstName R11
SYMATTR Value 120
SYMBOL cap 512 80 R0
SYMATTR InstName C9
SYMATTR Value 4.7
SYMATTR SpiceLine Rser=3
SYMBOL cap 848 144 R0
SYMATTR InstName C10
SYMATTR Value 4.7
SYMATTR SpiceLine Rser=3
SYMBOL cap 1296 -48 R0
SYMATTR InstName C8
SYMATTR Value 15
SYMBOL Misc\\IRF820 1232 -448 R270
SYMATTR InstName U3
SYMBOL zener 1360 -400 R0
SYMATTR InstName D1
SYMATTR Value BZX384B9V1
SYMATTR Description Diode
SYMATTR Type diode
SYMBOL res 1280 -96 R90
WINDOW 0 0 56 VBottom 2
WINDOW 3 32 56 VTop 2
SYMATTR InstName R8
SYMATTR Value 100k
SYMBOL Misc\\IRF820 -800 -352 R0
SYMATTR InstName U4
SYMBOL zener -768 -144 M180
WINDOW 0 24 64 Left 2
WINDOW 3 24 0 Left 2
SYMATTR InstName D10
SYMATTR Value 1N5378B
SYMATTR Description Diode
SYMATTR Type diode
SYMBOL res -768 -128 R0
SYMATTR InstName R12
SYMATTR Value 450
SYMBOL res -1056 0 R90
WINDOW 0 0 56 VBottom 2
WINDOW 3 32 56 VTop 2
SYMATTR InstName R14
SYMATTR Value 2k
SYMBOL current -608 -160 R0
WINDOW 123 0 0 Left 2
WINDOW 39 0 0 Left 2
SYMATTR InstName I4
SYMATTR Value PULSE(0m 100m 60 5u 5u 590u 1m 5000)
SYMBOL res -1056 -192 R0
SYMATTR InstName R13
SYMATTR Value 11765
SYMBOL res -1184 -240 R0
SYMATTR InstName R15
SYMATTR Value 10.57k
SYMBOL res -1280 -160 R0
SYMATTR InstName R16
SYMATTR Value 21875
SYMBOL Misc\\IRF820 608 -208 R0
SYMATTR InstName U5
SYMBOL res 640 -352 R0
SYMATTR InstName R17
SYMATTR Value 10k
SYMBOL res 512 -368 R0
SYMATTR InstName R18
SYMATTR Value 680k
SYMBOL res 512 -96 R0
SYMATTR InstName R19
SYMATTR Value 6.8k
SYMBOL res -912 -288 R90
WINDOW 0 0 56 VBottom 2
WINDOW 3 32 56 VTop 2
SYMATTR InstName R20
SYMATTR Value 100k
SYMBOL cap -896 -96 R0
SYMATTR InstName C11
SYMATTR Value 100
SYMBOL zener -768 -256 R90
WINDOW 0 -4 32 VBottom 2
WINDOW 3 36 32 VTop 2
SYMATTR InstName D12
SYMATTR Value BZX384B9V1
SYMATTR Description Diode
SYMATTR Type diode
SYMBOL LED 880 -448 M0
SYMATTR InstName D8
SYMATTR Value XM-LRED
SYMATTR Description Diode
SYMATTR Type diode
SYMBOL LED 880 -80 M0
SYMATTR InstName D15
SYMATTR Value XM-LGRN
SYMATTR Description Diode
SYMATTR Type diode
SYMBOL schottky 112 144 R180
WINDOW 0 24 64 Left 2
WINDOW 3 24 0 Left 2
SYMATTR InstName D2
SYMATTR Value 1N5819
SYMATTR Description Diode
SYMATTR Type diode
SYMBOL schottky 736 272 M180
WINDOW 0 24 64 Left 2
WINDOW 3 24 0 Left 2
SYMATTR InstName D11
SYMATTR Value 1N5819
SYMATTR Description Diode
SYMATTR Type diode
TEXT -24 -24 Left 2 !.tran 80s
TEXT -1024 232 Left 2 !* MCR100-8  SCR  A G K  MCE  7-17-95\n*MCE MCR100-8 600V  800mA  pkg:TO-226AA\n.SUBCKT XMCR1008 1 2 3\n*    TERMINALS:  A G K\n*  600 Volt  .8 Amp  SCR  07-17-1995\nQP  6 4 1  POUT OFF\nQN  4 6 5  NOUT OFF\nRF  6 4    120MEG\nRR  1 4    80MEG\nRGK 6 5    6.25K\nRG  2 6    9.17\nRK  3 5    81.3M\nDF  6 4    ZF\nDR  1 4    ZR\nDGK 6 5    ZGK\n.MODEL ZF   D (IS=.32F IBV=1U BV=600 RS=18MEG)\n.MODEL ZR   D (IS=.32F IBV=1U BV=800)\n.MODEL ZGK  D (IS=.32F IBV=1U BV=5)\n.MODEL POUT PNP (IS=320F BF=1 CJE=67P)\n.MODEL NOUT NPN (IS=320F BF=100 RC=.325\n+ CJE=67P CJC=13.4P TF=56.6N TR=8.06U)\n.ENDS XMCR1008
