Version 4
SHEET 1 880 680
WIRE 288 80 208 80
WIRE 384 80 288 80
WIRE 208 128 208 80
WIRE 384 128 384 80
WIRE 160 176 48 176
WIRE 48 192 48 176
WIRE 48 288 48 272
WIRE 176 288 176 224
WIRE 176 288 48 288
WIRE 304 288 176 288
WIRE 384 288 384 208
WIRE 384 288 304 288
WIRE 304 304 304 288
FLAG 304 304 0
FLAG 288 80 Ua
SYMBOL voltage 384 112 R0
WINDOW 123 0 0 Left 2
WINDOW 39 0 0 Left 2
SYMATTR InstName VA
SYMATTR Value 300
SYMBOL voltage 48 176 R0
WINDOW 123 0 0 Left 2
WINDOW 39 0 0 Left 2
SYMATTR InstName VG
SYMATTR Value 0
SYMBOL Misc\\6F12T_philbob 208 176 R0
SYMATTR InstName U1
TEXT 80 336 Left 2 !.dc Vg -5 5 0.2 Va 0 300 20
