Version 4
SHEET 1 880 680
WIRE 288 80 208 80
WIRE 384 80 288 80
WIRE 512 80 384 80
WIRE 448 112 48 112
WIRE 208 128 208 80
WIRE 384 128 384 80
WIRE 512 128 512 80
WIRE 48 176 48 112
WIRE 160 176 48 176
WIRE 448 176 448 112
WIRE 464 176 448 176
WIRE 48 192 48 176
WIRE 48 288 48 272
WIRE 176 288 176 224
WIRE 176 288 48 288
WIRE 304 288 176 288
WIRE 384 288 384 208
WIRE 384 288 304 288
WIRE 480 288 480 224
WIRE 480 288 384 288
WIRE 304 304 304 288
FLAG 304 304 0
FLAG 288 80 Ua
SYMBOL voltage 384 112 R0
WINDOW 123 0 0 Left 2
WINDOW 39 0 0 Left 2
SYMATTR InstName VA
SYMATTR Value 300
SYMBOL voltage 48 176 R0
WINDOW 123 0 0 Left 2
WINDOW 39 0 0 Left 2
SYMATTR InstName VG
SYMATTR Value 0
SYMBOL Misc\\6N17B 512 176 R0
SYMATTR InstName U1
SYMBOL Misc\\6N2P_philbob 208 176 R0
SYMATTR InstName U2
TEXT 80 336 Left 2 !.dc Va 0 440 5 VG 1 -5 -0.5
