Version 4
SHEET 1 1244 1016
WIRE 848 -272 672 -272
WIRE 672 -192 672 -272
WIRE 672 -128 672 -192
WIRE 528 -80 432 -80
WIRE 624 -80 528 -80
WIRE 848 -64 848 -272
WIRE 944 -64 848 -64
WIRE 528 -48 528 -80
WIRE 848 -32 848 -64
WIRE 528 80 528 32
WIRE 528 80 464 80
WIRE 608 80 528 80
WIRE 640 80 640 -32
WIRE 640 80 608 80
WIRE 848 80 848 48
WIRE 848 80 640 80
WIRE 912 80 848 80
WIRE 528 112 528 80
WIRE 608 224 608 80
WIRE 528 240 528 192
WIRE 848 240 848 80
WIRE 464 256 464 80
WIRE 480 256 464 256
WIRE 640 288 640 80
WIRE 432 304 432 -80
WIRE 480 304 432 304
WIRE 528 336 528 320
WIRE 624 336 528 336
WIRE 848 416 848 320
WIRE 912 432 912 80
WIRE 912 432 896 432
WIRE 672 464 672 384
WIRE 944 480 944 -64
WIRE 944 480 896 480
WIRE 672 544 672 464
WIRE 848 544 848 496
WIRE 848 544 672 544
FLAG 608 224 0
FLAG 672 -192 Va1
FLAG 672 464 Va2
SYMBOL voltage 848 -48 M0
WINDOW 123 0 0 Left 2
WINDOW 39 0 0 Left 2
SYMATTR InstName VPA1
SYMATTR Value 654
SYMBOL Misc\\6S19P 672 -80 R0
SYMATTR InstName U1
SYMBOL Misc\\6S19P 672 336 M180
SYMATTR InstName U2
SYMBOL voltage 528 -64 M0
WINDOW 123 0 0 Left 2
WINDOW 39 0 0 Left 2
SYMATTR InstName VG1
SYMATTR Value 0
SYMBOL e2 528 224 R0
SYMATTR InstName E1
SYMATTR Value -1
SYMBOL e 848 512 R180
SYMATTR InstName E2
SYMATTR Value -1
SYMBOL voltage 848 336 R180
WINDOW 0 24 96 Left 2
WINDOW 3 24 16 Left 2
WINDOW 123 0 0 Left 2
WINDOW 39 0 0 Left 2
SYMATTR InstName VPA2
SYMATTR Value 654
SYMBOL voltage 528 208 R180
WINDOW 0 24 96 Left 2
WINDOW 3 24 16 Left 2
WINDOW 123 0 0 Left 2
WINDOW 39 0 0 Left 2
SYMATTR InstName VG2
SYMATTR Value 0
TEXT 248 -136 Left 2 !.dc VPA1 0 654 5 VG1 0 -140 -20
