Version 4
SHEET 1 880 680
WIRE 624 0 16 0
WIRE 288 64 208 64
WIRE 384 64 288 64
WIRE 560 64 384 64
WIRE 208 112 208 64
WIRE 560 112 560 64
WIRE 384 128 384 64
WIRE 288 160 256 160
WIRE 304 160 288 160
WIRE 512 160 304 160
WIRE 16 176 16 0
WIRE 128 176 16 176
WIRE 160 176 128 176
WIRE 624 176 624 0
WIRE 624 176 608 176
WIRE 304 192 304 160
WIRE 16 208 16 176
WIRE 176 272 176 224
WIRE 176 288 176 272
WIRE 176 288 16 288
WIRE 304 288 304 272
WIRE 304 288 176 288
WIRE 384 288 384 208
WIRE 384 288 304 288
WIRE 592 288 592 224
WIRE 592 288 384 288
WIRE 304 304 304 288
FLAG 304 304 0
FLAG 288 64 Ua
FLAG 288 160 Ug2
FLAG 128 176 Ug1
FLAG 176 272 Uk
SYMBOL voltage 384 112 R0
WINDOW 123 0 0 Left 2
WINDOW 39 0 0 Left 2
SYMATTR InstName VA
SYMATTR Value 400
SYMBOL voltage 16 192 R0
WINDOW 123 0 0 Left 2
WINDOW 39 0 0 Left 2
SYMATTR InstName VG
SYMATTR Value 0
SYMBOL voltage 304 176 R0
WINDOW 123 0 0 Left 2
WINDOW 39 0 0 Left 2
SYMATTR InstName VE
SYMATTR Value 200
SYMBOL Misc\\6P15P 560 160 M0
SYMATTR InstName U2
SYMBOL Misc\\EL83 208 160 R0
SYMATTR InstName U1
TEXT 80 336 Left 2 !.dc Va 0 400 5 Vg -0 -4 -1
