Version 4
SHEET 1 1244 1016
WIRE 992 -272 672 -272
WIRE 672 -192 672 -272
WIRE 672 -144 672 -192
WIRE 784 -96 720 -96
WIRE 528 -80 432 -80
WIRE 624 -80 528 -80
WIRE 992 -64 992 -272
WIRE 1088 -64 992 -64
WIRE 528 -48 528 -80
WIRE 784 -32 784 -96
WIRE 992 -32 992 -64
WIRE 528 80 528 32
WIRE 528 80 464 80
WIRE 608 80 528 80
WIRE 640 80 640 -32
WIRE 640 80 608 80
WIRE 784 80 784 48
WIRE 784 80 640 80
WIRE 992 80 992 48
WIRE 992 80 784 80
WIRE 1056 80 992 80
WIRE 528 112 528 80
WIRE 784 112 784 80
WIRE 608 224 608 80
WIRE 528 240 528 192
WIRE 992 240 992 80
WIRE 464 256 464 80
WIRE 480 256 464 256
WIRE 640 288 640 80
WIRE 432 304 432 -80
WIRE 480 304 432 304
WIRE 528 336 528 320
WIRE 624 336 528 336
WIRE 784 352 784 192
WIRE 784 352 720 352
WIRE 992 416 992 320
WIRE 1056 432 1056 80
WIRE 1056 432 1040 432
WIRE 672 464 672 400
WIRE 1088 480 1088 -64
WIRE 1088 480 1040 480
WIRE 672 544 672 464
WIRE 992 544 992 496
WIRE 992 544 672 544
FLAG 608 224 0
FLAG 672 -192 Va1
FLAG 672 464 Va2
SYMBOL voltage 992 -48 M0
WINDOW 123 0 0 Left 2
WINDOW 39 0 0 Left 2
SYMATTR InstName VPA1
SYMATTR Value 820
SYMBOL voltage 528 -64 M0
WINDOW 123 0 0 Left 2
WINDOW 39 0 0 Left 2
SYMATTR InstName VG1
SYMATTR Value 0
SYMBOL e2 528 224 R0
SYMATTR InstName E1
SYMATTR Value -1
SYMBOL e 992 512 R180
SYMATTR InstName E2
SYMATTR Value -1
SYMBOL voltage 992 336 R180
WINDOW 0 24 96 Left 2
WINDOW 3 24 16 Left 2
WINDOW 123 0 0 Left 2
WINDOW 39 0 0 Left 2
SYMATTR InstName VPA2
SYMATTR Value 820
SYMBOL voltage 528 208 R180
WINDOW 0 24 96 Left 2
WINDOW 3 24 16 Left 2
WINDOW 123 0 0 Left 2
WINDOW 39 0 0 Left 2
SYMATTR InstName VG2
SYMATTR Value 0
SYMBOL Misc\\6BQ5 672 -96 R0
SYMATTR InstName U1
SYMBOL Misc\\6BQ5 672 352 M180
SYMATTR InstName U2
SYMBOL voltage 784 -48 R0
WINDOW 123 0 0 Left 2
WINDOW 39 0 0 Left 2
SYMATTR InstName VE1
SYMATTR Value 250
SYMBOL voltage 784 208 R180
WINDOW 0 24 96 Left 2
WINDOW 3 24 16 Left 2
WINDOW 123 0 0 Left 2
WINDOW 39 0 0 Left 2
SYMATTR InstName VE2
SYMATTR Value 250
TEXT 248 -136 Left 2 !.dc VPA1 0 820 5 VG1 0 -20 -2
