Version 4
SHEET 1 880 680
WIRE 32 32 -32 32
WIRE 96 32 32 32
WIRE 128 32 96 32
WIRE 304 32 208 32
WIRE 448 32 304 32
WIRE 384 64 208 64
WIRE 512 64 384 64
WIRE -32 80 -32 32
WIRE 32 80 32 32
WIRE 208 112 208 64
WIRE 512 112 512 64
WIRE 384 128 384 64
WIRE 304 160 304 32
WIRE 304 160 256 160
WIRE 448 160 448 32
WIRE 464 160 448 160
WIRE 96 176 96 32
WIRE 128 176 96 176
WIRE 160 176 128 176
WIRE 624 176 560 176
WIRE 304 192 304 160
WIRE 624 192 624 176
WIRE 176 272 176 224
WIRE 544 272 544 224
WIRE -32 288 -32 144
WIRE 32 288 32 160
WIRE 32 288 -32 288
WIRE 176 288 176 272
WIRE 176 288 32 288
WIRE 304 288 304 272
WIRE 304 288 176 288
WIRE 384 288 384 208
WIRE 384 288 304 288
WIRE 544 288 544 272
WIRE 544 288 384 288
WIRE 624 288 624 272
WIRE 624 288 544 288
WIRE 304 304 304 288
FLAG 304 304 0
FLAG 128 176 Ug1
FLAG 176 272 Uk
FLAG 544 272 Uk
SYMBOL voltage 384 112 R0
WINDOW 123 0 0 Left 2
WINDOW 39 0 0 Left 2
SYMATTR InstName VA
SYMATTR Value 500
SYMBOL voltage 304 176 R0
WINDOW 123 0 0 Left 2
WINDOW 39 0 0 Left 2
SYMATTR InstName VE
SYMATTR Value 100
SYMBOL Misc\\EL36 208 160 R0
SYMATTR InstName U1
SYMBOL res 16 64 R0
SYMATTR InstName R1
SYMATTR Value 10K
SYMBOL res 224 16 R90
WINDOW 0 0 56 VBottom 2
WINDOW 3 32 56 VTop 2
SYMATTR InstName R2
SYMATTR Value 270K
SYMBOL Misc\\EL36 512 160 M0
SYMATTR InstName U2
SYMBOL polcap -48 80 R0
WINDOW 3 24 56 Left 2
SYMATTR Value 47u
SYMATTR InstName C1
SYMATTR Description Capacitor
SYMATTR Type cap
SYMATTR SpiceLine V=100 Irms=210m Rser=0.37 Lser=0 mfg="Nichicon" pn="UPR2A470MPH" type="Al electrolytic"
SYMBOL voltage 624 288 R180
WINDOW 0 24 96 Left 2
WINDOW 3 24 16 Left 2
WINDOW 123 0 0 Left 2
WINDOW 39 0 0 Left 2
SYMATTR InstName VG
SYMATTR Value 1
TEXT 80 336 Left 2 !.dc Va 0 500 5 Ve 0 60 10
