Version 4
SHEET 1 2332 952
WIRE -1104 -288 -1104 -336
WIRE -928 -288 -928 -336
WIRE -784 -288 -784 -352
WIRE -1328 -240 -1456 -240
WIRE -1184 -240 -1184 -320
WIRE -1184 -240 -1328 -240
WIRE -560 -240 -560 -320
WIRE -416 -240 -560 -240
WIRE -288 -240 -416 -240
WIRE -1184 -176 -1184 -240
WIRE -560 -176 -560 -240
WIRE -1456 -160 -1456 -240
WIRE -1104 -160 -1104 -208
WIRE -1008 -160 -1104 -160
WIRE -928 -160 -928 -208
WIRE -928 -160 -1008 -160
WIRE -784 -160 -784 -208
WIRE -784 -160 -928 -160
WIRE -288 -160 -288 -240
WIRE -1008 -112 -1008 -160
WIRE -1328 -80 -1328 -240
WIRE -416 -80 -416 -240
WIRE -1184 -32 -1184 -96
WIRE -1184 -32 -1264 -32
WIRE -560 -32 -560 -96
WIRE -480 -32 -560 -32
WIRE -1664 -16 -1696 -16
WIRE -1552 -16 -1664 -16
WIRE -1456 -16 -1456 -80
WIRE -1456 -16 -1488 -16
WIRE -288 -16 -288 -80
WIRE -256 -16 -288 -16
WIRE -96 -16 -192 -16
WIRE -64 -16 -96 -16
WIRE -1456 32 -1456 -16
WIRE -1184 32 -1184 -32
WIRE -560 32 -560 -32
WIRE -288 32 -288 -16
WIRE -1328 80 -1328 16
WIRE -1328 80 -1408 80
WIRE -1040 80 -1136 80
WIRE -752 80 -752 48
WIRE -720 80 -752 80
WIRE -608 80 -640 80
WIRE -416 80 -416 16
WIRE -336 80 -416 80
WIRE -1504 96 -1568 96
WIRE -176 96 -240 96
WIRE -1040 112 -1040 80
WIRE -752 112 -752 80
WIRE -1488 176 -1488 144
WIRE -256 176 -256 144
WIRE -96 192 -96 -16
WIRE -1664 208 -1664 -16
WIRE -1328 240 -1328 80
WIRE -416 240 -416 80
WIRE -1488 256 -1488 240
WIRE -256 256 -256 240
WIRE -1040 304 -1040 192
WIRE -752 304 -752 192
WIRE -1664 352 -1664 288
WIRE -1568 352 -1568 96
WIRE -1568 352 -1664 352
WIRE -1488 352 -1488 320
WIRE -1488 352 -1568 352
WIRE -1328 352 -1328 320
WIRE -1328 352 -1488 352
WIRE -1152 352 -1152 128
WIRE -864 352 -1152 352
WIRE -592 352 -592 128
WIRE -592 352 -864 352
WIRE -416 352 -416 320
WIRE -256 352 -256 320
WIRE -256 352 -416 352
WIRE -176 352 -176 96
WIRE -176 352 -256 352
WIRE -96 352 -96 272
WIRE -96 352 -176 352
WIRE -1488 384 -1488 352
WIRE -256 384 -256 352
WIRE -864 400 -864 352
WIRE -864 544 -864 480
FLAG -560 -320 HT+400
IOPIN -560 -320 In
FLAG -752 48 input
IOPIN -752 48 BiDir
FLAG -752 304 0
FLAG -1008 -112 0
FLAG -1104 -336 HT+400
IOPIN -1104 -336 Out
FLAG -784 -352 input
IOPIN -784 -352 BiDir
FLAG -64 -16 output
IOPIN -64 -16 Out
FLAG -256 384 0
FLAG -1184 -320 HT+400
IOPIN -1184 -320 In
FLAG -1696 -16 output2
IOPIN -1696 -16 Out
FLAG -1488 384 0
FLAG -1040 304 0
FLAG -928 -336 HT-130
IOPIN -928 -336 Out
FLAG -864 544 HT-130
IOPIN -864 544 In
SYMBOL res -304 -176 R0
SYMATTR InstName R1
SYMATTR Value 39k
SYMBOL res -544 -192 M0
SYMATTR InstName R2
SYMATTR Value 440k
SYMBOL res -736 96 M0
SYMATTR InstName R4
SYMATTR Value 10k
SYMBOL voltage -1104 -304 R0
WINDOW 123 0 0 Left 2
WINDOW 39 0 0 Left 2
SYMATTR InstName V1
SYMATTR Value 400
SYMBOL voltage -784 -304 R0
WINDOW 123 24 44 Left 2
WINDOW 39 0 0 Left 2
SYMATTR Value2 AC 1 1
SYMATTR InstName V4
SYMATTR Value SINE(0 0.2 1k)
SYMBOL res -624 64 R90
WINDOW 0 0 56 VBottom 2
WINDOW 3 32 56 VTop 2
SYMATTR InstName R14
SYMATTR Value 1k
SYMBOL Misc\\6F12PEXCEM -288 80 M0
SYMATTR InstName U4
SYMBOL Misc\\6F12T_philbob -560 80 R0
SYMATTR InstName U1
SYMBOL Misc\\MJE340 -480 -80 R0
SYMATTR InstName U2
SYMBOL res -432 224 R0
SYMATTR InstName R6
SYMATTR Value 47K
SYMBOL res -1440 -176 M0
SYMATTR InstName R7
SYMATTR Value 39k
SYMBOL res -1200 -192 R0
SYMATTR InstName R8
SYMATTR Value 440k
SYMBOL Misc\\6F12PEXCEM -1456 80 R0
SYMATTR InstName U3
SYMBOL Misc\\6F12T_philbob -1184 80 M0
SYMATTR InstName U5
SYMBOL Misc\\MJE340 -1264 -80 M0
SYMATTR InstName U6
SYMBOL res -1312 224 M0
SYMATTR InstName R11
SYMATTR Value 47K
SYMBOL res -1024 208 R180
WINDOW 0 36 76 Left 2
WINDOW 3 36 40 Left 2
SYMATTR InstName R5
SYMATTR Value 1k
SYMBOL res -880 384 R0
SYMATTR InstName R10
SYMATTR Value 120K
SYMBOL voltage -928 -192 R180
WINDOW 123 0 0 Left 2
WINDOW 39 0 0 Left 2
SYMATTR InstName V2
SYMATTR Value 130
SYMBOL cap -1488 -32 R90
WINDOW 0 0 32 VBottom 2
WINDOW 3 32 32 VTop 2
SYMATTR InstName C1
SYMATTR Value 1u
SYMATTR SpiceLine V=100 Irms=4.58 Rser=0.025 Lser=0 mfg="KEMET" pn="C2225C105K1RAC" type="X7R"
SYMBOL res -1680 192 R0
SYMATTR InstName R12
SYMATTR Value 470K
SYMBOL cap -192 -32 R90
WINDOW 0 0 32 VBottom 2
WINDOW 3 32 32 VTop 2
SYMATTR InstName C2
SYMATTR Value 1u
SYMATTR SpiceLine V=100 Irms=4.58 Rser=0.025 Lser=0 mfg="KEMET" pn="C2225C105K1RAC" type="X7R"
SYMBOL res -112 176 R0
SYMATTR InstName R13
SYMATTR Value 470K
SYMBOL diode -1504 176 R0
SYMATTR InstName D1
SYMATTR Value UF4007
SYMBOL diode -1504 256 R0
SYMATTR InstName D2
SYMATTR Value UF4007
SYMBOL diode -272 176 R0
SYMATTR InstName D3
SYMATTR Value UF4007
SYMBOL diode -272 256 R0
SYMATTR InstName D4
SYMATTR Value UF4007
TEXT -520 -344 Left 2 !.tran 10m
TEXT -520 -304 Left 2 !.Fourrier 1000 V(output)
TEXT -520 -376 Left 2 !;ac oct 1000 1 1MEG
TEXT -1224 -344 Right 2 !;tran 10m
TEXT -1224 -304 Right 2 !.Fourrier 1000 V(output2)
TEXT -1224 -376 Right 2 !;ac oct 1000 1 1MEG
TEXT -1408 448 Left 2 ;Copyleft 2014
TEXT -1408 504 Left 2 ;Yves MONMAGNON
TEXT -1408 528 Left 2 ;Christophe DEDESSUS LES MOUTIER
TEXT -1408 552 Left 2 ;Grégoire HUBERT
TEXT -1408 584 Left 2 ;License CC by SA
TEXT -1408 616 Left 2 ;www.audiyofan.org
TEXT -1408 480 Left 2 ;Arnaud HAEGELE
TEXT -1824 -272 Left 2 !.measure PP_VOUTPUT2 PP(V(Output2)) from 0m to 5m
TEXT -520 -272 Left 2 !.measure PP_VOUTPUT PP(V(Output)) from 0m to 5m
