Version 4
SHEET 1 2332 1392
WIRE -4384 -240 -4448 -240
WIRE -4016 -240 -4384 -240
WIRE -3904 -240 -4016 -240
WIRE -3648 -240 -3808 -240
WIRE -3184 -240 -3488 -240
WIRE -3808 -192 -3808 -240
WIRE -4384 -176 -4384 -240
WIRE -4496 -160 -4784 -160
WIRE -3904 -144 -3904 -240
WIRE -3856 -144 -3904 -144
WIRE -4496 -96 -4496 -160
WIRE -3488 -96 -3488 -240
WIRE -4784 -80 -4784 -160
WIRE -4784 -80 -4816 -80
WIRE -4752 -80 -4784 -80
WIRE -4640 -80 -4672 -80
WIRE -4544 -80 -4576 -80
WIRE -4384 -48 -4384 -112
WIRE -4384 -48 -4432 -48
WIRE -4320 -48 -4384 -48
WIRE -4160 -48 -4240 -48
WIRE -3840 -48 -3840 -96
WIRE -3760 -48 -3840 -48
WIRE -3696 -48 -3696 -80
WIRE -3696 -48 -3760 -48
WIRE -3664 -48 -3696 -48
WIRE -3536 -48 -3584 -48
WIRE -3840 -32 -3840 -48
WIRE -3760 -32 -3760 -48
WIRE -3376 -32 -3440 -32
WIRE -3888 0 -3904 0
WIRE -4016 32 -4016 -240
WIRE -5424 48 -5424 0
WIRE -5328 48 -5328 0
WIRE -5216 48 -5216 0
WIRE -5088 48 -5088 0
WIRE -5008 48 -5008 -16
WIRE -3456 64 -3456 16
WIRE -4784 80 -4784 -80
WIRE -4656 80 -4784 80
WIRE -4480 80 -4480 0
WIRE -4480 80 -4576 80
WIRE -4416 80 -4480 80
WIRE -4160 80 -4160 -48
WIRE -4160 80 -4320 80
WIRE -3904 80 -3904 0
WIRE -3840 80 -3840 48
WIRE -3840 80 -3904 80
WIRE -3760 80 -3760 48
WIRE -3760 80 -3840 80
WIRE -3840 112 -3840 80
WIRE -5424 176 -5424 128
WIRE -5328 176 -5328 128
WIRE -5328 176 -5424 176
WIRE -5232 176 -5328 176
WIRE -5216 176 -5216 128
WIRE -5216 176 -5232 176
WIRE -5088 176 -5088 128
WIRE -5088 176 -5216 176
WIRE -5008 176 -5008 128
WIRE -5008 176 -5088 176
WIRE -3456 192 -3456 144
WIRE -3376 192 -3376 -32
WIRE -3376 192 -3456 192
WIRE -5232 224 -5232 176
WIRE -4368 224 -4368 144
WIRE -4368 224 -4432 224
WIRE -4304 224 -4368 224
WIRE -4160 224 -4160 80
WIRE -4160 224 -4224 224
WIRE -4016 240 -4016 112
WIRE -3840 240 -3840 192
WIRE -3840 240 -4016 240
WIRE -4528 256 -4688 256
WIRE -3840 272 -3840 240
WIRE -4768 352 -4944 352
WIRE -4592 368 -4640 368
WIRE -4480 368 -4480 272
WIRE -4480 368 -4512 368
WIRE -3184 368 -3184 -240
WIRE -3152 368 -3184 368
WIRE -4768 384 -4768 352
WIRE -2992 400 -2992 384
WIRE -2992 400 -3056 400
WIRE -2944 400 -2992 400
WIRE -2944 416 -2944 400
WIRE -4944 432 -4944 352
WIRE -4944 432 -4976 432
WIRE -4912 432 -4944 432
WIRE -4800 432 -4832 432
WIRE -4688 432 -4688 256
WIRE -4688 432 -4704 432
WIRE -4160 448 -4160 224
WIRE -4144 448 -4160 448
WIRE -3840 448 -3840 352
WIRE -3840 448 -3872 448
WIRE -3648 448 -3648 -240
WIRE -3648 448 -3680 448
WIRE -3456 448 -3456 192
WIRE -3456 448 -3504 448
WIRE -3152 448 -3184 448
WIRE -4592 480 -4640 480
WIRE -4480 480 -4512 480
WIRE -4448 480 -4480 480
WIRE -2992 496 -3056 496
WIRE -2944 496 -2992 496
WIRE -4480 512 -4480 480
WIRE -3840 528 -3840 448
WIRE -3152 528 -3184 528
WIRE -2992 560 -2992 496
WIRE -4480 624 -4480 592
WIRE -4688 640 -4688 432
WIRE -4528 640 -4688 640
WIRE -3840 640 -3840 608
WIRE -3840 640 -4000 640
WIRE -4368 672 -4432 672
WIRE -4304 672 -4368 672
WIRE -4160 672 -4160 448
WIRE -4160 672 -4224 672
WIRE -3840 672 -3840 640
WIRE -3456 688 -3456 448
WIRE -3376 688 -3456 688
WIRE -4000 704 -4000 640
WIRE -4368 752 -4368 672
WIRE -3456 752 -3456 688
WIRE -3840 800 -3840 752
WIRE -3840 800 -3920 800
WIRE -3760 800 -3840 800
WIRE -4656 816 -4784 816
WIRE -4480 816 -4576 816
WIRE -4416 816 -4480 816
WIRE -4160 816 -4160 672
WIRE -4160 816 -4320 816
WIRE -3840 816 -3840 800
WIRE -3760 816 -3760 800
WIRE -3920 848 -3920 800
WIRE -3888 848 -3920 848
WIRE -3456 880 -3456 832
WIRE -4480 896 -4480 816
WIRE -3376 928 -3376 688
WIRE -3376 928 -3440 928
WIRE -4384 944 -4432 944
WIRE -4320 944 -4384 944
WIRE -4160 944 -4160 816
WIRE -4160 944 -4240 944
WIRE -3840 944 -3840 896
WIRE -3760 944 -3760 896
WIRE -3760 944 -3840 944
WIRE -3696 944 -3760 944
WIRE -3664 944 -3696 944
WIRE -3536 944 -3584 944
WIRE -3696 960 -3696 944
WIRE -4784 976 -4784 816
WIRE -4784 976 -4816 976
WIRE -4752 976 -4784 976
WIRE -4640 976 -4672 976
WIRE -4544 976 -4576 976
WIRE -4384 1008 -4384 944
WIRE -3840 1008 -3840 944
WIRE -4784 1056 -4784 976
WIRE -4496 1056 -4496 992
WIRE -4496 1056 -4784 1056
WIRE -3856 1056 -3968 1056
WIRE -4384 1152 -4384 1072
WIRE -4384 1152 -4432 1152
WIRE -4000 1152 -4000 784
WIRE -4000 1152 -4384 1152
WIRE -3968 1152 -3968 1056
WIRE -3968 1152 -4000 1152
WIRE -3808 1152 -3808 1104
WIRE -3648 1152 -3648 448
WIRE -3648 1152 -3808 1152
WIRE -3488 1152 -3488 992
WIRE -3184 1152 -3184 528
WIRE -3184 1152 -3488 1152
FLAG -4448 480 input
IOPIN -4448 480 BiDir
FLAG -4640 480 0
FLAG -5232 224 0
FLAG -5328 0 HT+400
IOPIN -5328 0 Out
FLAG -5008 -16 input
IOPIN -5008 -16 BiDir
FLAG -4432 1152 output
IOPIN -4432 1152 Out
FLAG -4816 976 0
FLAG -4144 448 HT+400
IOPIN -4144 448 In
FLAG -4448 -240 output2
IOPIN -4448 -240 Out
FLAG -4816 -80 0
FLAG -4640 368 0
FLAG -5088 0 HT-20
IOPIN -5088 0 Out
FLAG -4976 432 HT-20
IOPIN -4976 432 In
FLAG -5216 0 HT-130
IOPIN -5216 0 Out
FLAG -5424 0 HT+250
IOPIN -5424 0 Out
FLAG -3680 448 HT+250
IOPIN -3680 448 In
FLAG -3872 448 HT-130
IOPIN -3872 448 In
FLAG -3696 -80 CF2
IOPIN -3696 -80 Out
FLAG -3696 960 CF1
IOPIN -3696 960 Out
FLAG -3504 448 0
FLAG -3184 448 HT+400
IOPIN -3184 448 In
FLAG -2992 560 0
FLAG -2992 384 HP
IOPIN -2992 384 Out
SYMBOL res -4224 928 R90
WINDOW 0 0 56 VBottom 2
WINDOW 3 32 56 VTop 2
SYMATTR InstName R1
SYMATTR Value 41k
SYMBOL res -4208 688 M270
WINDOW 0 32 56 VTop 2
WINDOW 3 0 56 VBottom 2
SYMATTR InstName R2
SYMATTR Value 47k
SYMBOL res -4496 496 M270
WINDOW 0 32 56 VTop 2
WINDOW 3 0 56 VBottom 2
SYMATTR InstName R4
SYMATTR Value 10k
SYMBOL voltage -5328 32 R0
WINDOW 123 0 0 Left 2
WINDOW 39 0 0 Left 2
SYMATTR InstName V1
SYMATTR Value 400
SYMBOL voltage -5008 32 R0
WINDOW 123 24 44 Left 2
WINDOW 39 0 0 Left 2
SYMATTR Value2 AC 1 1
SYMATTR InstName V4
SYMATTR Value SINE(0 0.5 1k)
SYMBOL res -4464 608 R180
WINDOW 0 36 76 Left 2
WINDOW 3 36 40 Left 2
SYMATTR InstName R14
SYMATTR Value 1k
SYMBOL Misc\\6F12PEXCEM -4480 944 M270
SYMATTR InstName U4
SYMBOL Misc\\6F12T_philbob -4480 672 R90
SYMATTR InstName U1
SYMBOL Misc\\MJE340 -4320 752 R90
SYMATTR InstName U2
SYMBOL res -4560 800 R90
WINDOW 0 0 56 VBottom 2
WINDOW 3 32 56 VTop 2
SYMATTR InstName R6
SYMATTR Value 47K
SYMBOL res -4224 -32 M270
WINDOW 0 32 56 VTop 2
WINDOW 3 0 56 VBottom 2
SYMATTR InstName R7
SYMATTR Value 41K
SYMBOL res -4208 208 R90
WINDOW 0 0 56 VBottom 2
WINDOW 3 32 56 VTop 2
SYMATTR InstName R8
SYMATTR Value 47k
SYMBOL Misc\\6F12PEXCEM -4480 -48 R90
SYMATTR InstName U3
SYMBOL Misc\\6F12T_philbob -4480 224 M270
SYMATTR InstName U5
SYMBOL Misc\\MJE340 -4320 144 M270
SYMATTR InstName U6
SYMBOL res -4560 96 M270
WINDOW 0 32 56 VTop 2
WINDOW 3 0 56 VBottom 2
SYMATTR InstName R11
SYMATTR Value 47K
SYMBOL res -4608 384 R270
WINDOW 0 32 56 VTop 2
WINDOW 3 0 56 VBottom 2
SYMATTR InstName R5
SYMATTR Value 1k
SYMBOL njf -4704 384 R90
SYMATTR InstName J1
SYMATTR Value 2N4392P
SYMBOL res -4816 416 R90
WINDOW 0 0 56 VBottom 2
WINDOW 3 32 56 VTop 2
SYMATTR InstName R10
SYMATTR Value 270
SYMBOL voltage -5088 144 R180
WINDOW 123 0 0 Left 2
WINDOW 39 0 0 Left 2
SYMATTR InstName V2
SYMATTR Value 20
SYMBOL diode -4576 -96 R90
WINDOW 0 0 32 VBottom 2
WINDOW 3 32 32 VTop 2
SYMATTR InstName D2
SYMATTR Value UF4007
SYMBOL diode -4576 960 R90
WINDOW 0 0 32 VBottom 2
WINDOW 3 32 32 VTop 2
SYMATTR InstName D3
SYMATTR Value UF4007
SYMBOL cap -4368 1072 R180
WINDOW 0 24 56 Left 2
WINDOW 3 24 8 Left 2
SYMATTR InstName C1
SYMATTR Value 1u
SYMATTR SpiceLine V=100 Irms=4.58 Rser=0.025 Lser=0 mfg="KEMET" pn="C2225C105K1RAC" type="X7R"
SYMBOL cap -4368 -112 R180
WINDOW 0 24 56 Left 2
WINDOW 3 24 8 Left 2
SYMATTR InstName C2
SYMATTR Value 1u
SYMATTR SpiceLine V=100 Irms=4.58 Rser=0.025 Lser=0 mfg="KEMET" pn="C2225C105K1RAC" type="X7R"
SYMBOL res -3984 800 R180
WINDOW 0 36 76 Left 2
WINDOW 3 36 40 Left 2
SYMATTR InstName R3
SYMATTR Value 470K
SYMBOL res -4000 128 R180
WINDOW 0 36 76 Left 2
WINDOW 3 36 40 Left 2
SYMATTR InstName R9
SYMATTR Value 470K
SYMBOL res -4656 -96 R90
WINDOW 0 0 56 VBottom 2
WINDOW 3 32 56 VTop 2
SYMATTR InstName R12
SYMATTR Value 100
SYMBOL res -4656 960 R90
WINDOW 0 0 56 VBottom 2
WINDOW 3 32 56 VTop 2
SYMATTR InstName R13
SYMATTR Value 100
SYMBOL Misc\\6N6P -3808 -144 R0
SYMATTR InstName U7
SYMBOL Misc\\6N6P -3808 1056 M180
SYMATTR InstName U8
SYMBOL voltage -5216 144 M180
WINDOW 0 24 96 Left 2
WINDOW 3 24 16 Left 2
WINDOW 123 0 0 Left 2
WINDOW 39 0 0 Left 2
SYMATTR InstName V3
SYMATTR Value 130
SYMBOL voltage -5424 32 R0
WINDOW 123 0 0 Left 2
WINDOW 39 0 0 Left 2
SYMATTR InstName V5
SYMATTR Value 250
SYMBOL res -3856 256 R0
SYMATTR InstName R15
SYMATTR Value 22K
SYMBOL res -3856 512 R0
SYMATTR InstName R16
SYMATTR Value 22K
SYMBOL res -3856 96 R0
SYMATTR InstName R17
SYMATTR Value 1K5
SYMBOL res -3856 656 R0
SYMATTR InstName R18
SYMATTR Value 1K5
SYMBOL res -3776 -48 R0
SYMATTR InstName R19
SYMATTR Value 560
SYMBOL res -3776 800 R0
SYMATTR InstName R20
SYMATTR Value 560
SYMBOL Misc\\potentiometre -3824 64 R180
SYMATTR InstName U9
SYMATTR Value Rtot=1K wiper=.2
SYMBOL Misc\\potentiometre -3824 912 R180
SYMATTR InstName U10
SYMATTR Value Rtot=1K wiper=.8
SYMBOL res -3568 -64 R90
WINDOW 0 0 56 VBottom 2
WINDOW 3 32 56 VTop 2
SYMATTR InstName R21
SYMATTR Value 1K
SYMBOL res -3568 928 R90
WINDOW 0 0 56 VBottom 2
WINDOW 3 32 56 VTop 2
SYMATTR InstName R22
SYMATTR Value 1K
SYMBOL Misc\\EL36 -3488 -48 M0
SYMATTR InstName U11
SYMBOL Misc\\EL36 -3488 944 R180
SYMATTR InstName U12
SYMBOL res -3472 48 R0
SYMATTR InstName R23
SYMATTR Value 33
SYMBOL res -3472 736 R0
SYMATTR InstName R24
SYMATTR Value 33
SYMBOL Misc\\TRSDA152 -3104 448 R0
SYMATTR InstName U13
SYMBOL res -2960 400 R0
SYMATTR InstName R25
SYMATTR Value 6
TEXT -4200 360 Right 2 !.Fourrier 1000 V(output)
TEXT -4456 296 Left 2 !.tran 5m
TEXT -4456 392 Left 2 !.Fourrier 1000 V(output2)
TEXT -4456 328 Left 2 !;ac oct 1000 1 1MEG
TEXT -4456 424 Left 2 !.Fourrier 1000 V(HP)
TEXT -5160 712 Left 2 !.measure POWER AVG(V(HP))**2 /6 from 0m to 5m
