Version 4
SHEET 1 2332 952
WIRE -1104 -288 -1104 -336
WIRE -928 -288 -928 -336
WIRE -784 -288 -784 -352
WIRE -1328 -240 -1456 -240
WIRE -1184 -240 -1184 -320
WIRE -1184 -240 -1328 -240
WIRE -560 -240 -560 -320
WIRE -416 -240 -560 -240
WIRE -288 -240 -416 -240
WIRE -1184 -176 -1184 -240
WIRE -560 -176 -560 -240
WIRE -1456 -160 -1456 -240
WIRE -1104 -160 -1104 -208
WIRE -1008 -160 -1104 -160
WIRE -928 -160 -928 -208
WIRE -928 -160 -1008 -160
WIRE -784 -160 -784 -208
WIRE -784 -160 -928 -160
WIRE -288 -160 -288 -240
WIRE -1008 -112 -1008 -160
WIRE -1328 -80 -1328 -240
WIRE -416 -80 -416 -240
WIRE -1184 -32 -1184 -96
WIRE -1184 -32 -1264 -32
WIRE -560 -32 -560 -96
WIRE -480 -32 -560 -32
WIRE -1456 -16 -1456 -80
WIRE -1456 -16 -1488 -16
WIRE -288 -16 -288 -80
WIRE -256 -16 -288 -16
WIRE -1456 32 -1456 -16
WIRE -1184 32 -1184 -32
WIRE -560 32 -560 -32
WIRE -288 32 -288 -16
WIRE -1328 80 -1328 16
WIRE -1328 80 -1408 80
WIRE -1040 80 -1136 80
WIRE -752 80 -752 48
WIRE -720 80 -752 80
WIRE -608 80 -640 80
WIRE -416 80 -416 16
WIRE -336 80 -416 80
WIRE -1504 96 -1568 96
WIRE -176 96 -240 96
WIRE -1040 112 -1040 80
WIRE -752 112 -752 80
WIRE -1328 176 -1328 80
WIRE -416 176 -416 80
WIRE -1488 192 -1488 144
WIRE -256 192 -256 144
WIRE -1040 240 -1040 192
WIRE -752 240 -752 192
WIRE -1568 288 -1568 96
WIRE -1488 288 -1488 272
WIRE -1488 288 -1568 288
WIRE -1328 288 -1328 256
WIRE -1328 288 -1488 288
WIRE -1152 288 -1152 128
WIRE -864 288 -1152 288
WIRE -592 288 -592 128
WIRE -592 288 -864 288
WIRE -416 288 -416 256
WIRE -256 288 -256 272
WIRE -256 288 -416 288
WIRE -176 288 -176 96
WIRE -176 288 -256 288
WIRE -864 304 -864 288
WIRE -1488 320 -1488 288
WIRE -256 320 -256 288
WIRE -912 368 -944 368
WIRE -864 432 -864 400
WIRE -944 544 -944 368
WIRE -864 544 -864 512
WIRE -864 544 -944 544
WIRE -864 576 -864 544
FLAG -560 -320 HT+400
IOPIN -560 -320 In
FLAG -752 48 input
IOPIN -752 48 BiDir
FLAG -752 240 0
FLAG -1008 -112 0
FLAG -1104 -336 HT+400
IOPIN -1104 -336 Out
FLAG -784 -352 input
IOPIN -784 -352 BiDir
FLAG -256 -16 output
IOPIN -256 -16 BiDir
FLAG -256 320 0
FLAG -1184 -320 HT+400
IOPIN -1184 -320 In
FLAG -1488 -16 output2
IOPIN -1488 -16 BiDir
FLAG -1488 320 0
FLAG -1040 240 0
FLAG -928 -336 HT-20
IOPIN -928 -336 Out
FLAG -864 576 HT-20
IOPIN -864 576 In
SYMBOL res -304 -176 R0
SYMATTR InstName R1
SYMATTR Value 22k
SYMBOL res -544 -192 M0
SYMATTR InstName R2
SYMATTR Value 47k
SYMBOL res -736 96 M0
SYMATTR InstName R4
SYMATTR Value 10k
SYMBOL voltage -1104 -304 R0
WINDOW 123 0 0 Left 2
WINDOW 39 0 0 Left 2
SYMATTR InstName V1
SYMATTR Value 400
SYMBOL voltage -784 -304 R0
WINDOW 123 24 44 Left 2
WINDOW 39 0 0 Left 2
SYMATTR Value2 AC 1 1
SYMATTR InstName V4
SYMATTR Value SINE(0 0.5 1k)
SYMBOL res -624 64 R90
WINDOW 0 0 56 VBottom 2
WINDOW 3 32 56 VTop 2
SYMATTR InstName R14
SYMATTR Value 1k
SYMBOL Misc\\6F12PEXCEM -288 80 M0
SYMATTR InstName U4
SYMBOL Misc\\6F12T_philbob -560 80 R0
SYMATTR InstName U1
SYMBOL Misc\\MJE340 -480 -80 R0
SYMATTR InstName U2
SYMBOL res -272 176 R0
SYMATTR InstName R3
SYMATTR Value 91
SYMBOL res -432 160 R0
SYMATTR InstName R6
SYMATTR Value 47K
SYMBOL res -1440 -176 M0
SYMATTR InstName R7
SYMATTR Value 22k
SYMBOL res -1200 -192 R0
SYMATTR InstName R8
SYMATTR Value 47k
SYMBOL Misc\\6F12PEXCEM -1456 80 R0
SYMATTR InstName U3
SYMBOL Misc\\6F12T_philbob -1184 80 M0
SYMATTR InstName U5
SYMBOL Misc\\MJE340 -1264 -80 M0
SYMATTR InstName U6
SYMBOL res -1472 176 M0
SYMATTR InstName R9
SYMATTR Value 91
SYMBOL res -1312 160 M0
SYMATTR InstName R11
SYMATTR Value 47K
SYMBOL res -1024 208 R180
WINDOW 0 36 76 Left 2
WINDOW 3 36 40 Left 2
SYMATTR InstName R5
SYMATTR Value 1k
SYMBOL njf -912 304 R0
SYMATTR InstName J1
SYMATTR Value 2N4392P
SYMBOL res -880 416 R0
SYMATTR InstName R10
SYMATTR Value 270
SYMBOL voltage -928 -192 R180
WINDOW 123 0 0 Left 2
WINDOW 39 0 0 Left 2
SYMATTR InstName V2
SYMATTR Value 20
TEXT -520 -344 Left 2 !.tran 10m
TEXT -520 -304 Left 2 !.Fourrier 1000 V(output)
TEXT -520 -376 Left 2 !;ac oct 1000 1 1MEG
TEXT -1224 -344 Right 2 !;tran 10m
TEXT -1224 -304 Right 2 !.Fourrier 1000 V(output)
TEXT -1224 -376 Right 2 !;ac oct 1000 1 1MEG
