Version 4
SHEET 1 2332 1392
WIRE -4384 -240 -4448 -240
WIRE -4064 -240 -4384 -240
WIRE -3904 -240 -4064 -240
WIRE -3648 -240 -3808 -240
WIRE -3808 -192 -3808 -240
WIRE -4384 -176 -4384 -240
WIRE -4496 -160 -4784 -160
WIRE -3904 -144 -3904 -240
WIRE -3856 -144 -3904 -144
WIRE -4496 -96 -4496 -160
WIRE -4784 -80 -4784 -160
WIRE -4784 -80 -4816 -80
WIRE -4736 -80 -4784 -80
WIRE -4640 -80 -4672 -80
WIRE -4544 -80 -4576 -80
WIRE -4384 -48 -4384 -112
WIRE -4384 -48 -4432 -48
WIRE -4320 -48 -4384 -48
WIRE -4160 -48 -4240 -48
WIRE -3840 -48 -3840 -96
WIRE -3760 -48 -3840 -48
WIRE -3728 -48 -3760 -48
WIRE -5296 -32 -5296 -80
WIRE -5200 -32 -5200 -80
WIRE -5088 -32 -5088 -80
WIRE -4992 -32 -4992 -96
WIRE -3840 -32 -3840 -48
WIRE -3760 -32 -3760 -48
WIRE -3888 0 -3904 0
WIRE -4064 32 -4064 -240
WIRE -4784 80 -4784 -80
WIRE -4656 80 -4784 80
WIRE -4480 80 -4480 0
WIRE -4480 80 -4576 80
WIRE -4416 80 -4480 80
WIRE -4160 80 -4160 -48
WIRE -4160 80 -4320 80
WIRE -3904 80 -3904 0
WIRE -3840 80 -3840 48
WIRE -3840 80 -3904 80
WIRE -3760 80 -3760 48
WIRE -3760 80 -3840 80
WIRE -5296 96 -5296 48
WIRE -5200 96 -5200 48
WIRE -5200 96 -5296 96
WIRE -5088 96 -5088 48
WIRE -5088 96 -5200 96
WIRE -4992 96 -4992 48
WIRE -4992 96 -5088 96
WIRE -3840 112 -3840 80
WIRE -5088 144 -5088 96
WIRE -4368 224 -4368 144
WIRE -4368 224 -4432 224
WIRE -4304 224 -4368 224
WIRE -4160 224 -4160 80
WIRE -4160 224 -4224 224
WIRE -4064 240 -4064 112
WIRE -3840 240 -3840 192
WIRE -3840 240 -4064 240
WIRE -4528 256 -4688 256
WIRE -3840 272 -3840 240
WIRE -4480 304 -4480 272
WIRE -4480 304 -4544 304
WIRE -4592 368 -4640 368
WIRE -4480 368 -4480 304
WIRE -4480 368 -4512 368
WIRE -4816 432 -4864 432
WIRE -4688 432 -4688 256
WIRE -4688 432 -4736 432
WIRE -4160 448 -4160 224
WIRE -4144 448 -4160 448
WIRE -3840 448 -3840 352
WIRE -3840 448 -3872 448
WIRE -3648 448 -3648 -240
WIRE -3648 448 -3680 448
WIRE -4592 480 -4640 480
WIRE -4480 480 -4512 480
WIRE -4448 480 -4480 480
WIRE -4480 512 -4480 480
WIRE -3840 528 -3840 448
WIRE -4480 624 -4480 592
WIRE -4688 640 -4688 432
WIRE -4528 640 -4688 640
WIRE -3840 640 -3840 608
WIRE -3840 640 -4064 640
WIRE -4368 672 -4432 672
WIRE -4304 672 -4368 672
WIRE -4160 672 -4160 448
WIRE -4160 672 -4224 672
WIRE -3840 672 -3840 640
WIRE -4064 704 -4064 640
WIRE -4368 752 -4368 672
WIRE -3840 800 -3840 752
WIRE -3840 800 -3920 800
WIRE -3760 800 -3840 800
WIRE -4656 816 -4784 816
WIRE -4480 816 -4576 816
WIRE -4416 816 -4480 816
WIRE -4160 816 -4160 672
WIRE -4160 816 -4320 816
WIRE -3840 816 -3840 800
WIRE -3760 816 -3760 800
WIRE -3920 848 -3920 800
WIRE -3888 848 -3920 848
WIRE -4480 896 -4480 816
WIRE -4384 944 -4432 944
WIRE -4320 944 -4384 944
WIRE -4160 944 -4160 816
WIRE -4160 944 -4240 944
WIRE -3840 944 -3840 896
WIRE -3760 944 -3760 896
WIRE -3760 944 -3840 944
WIRE -3728 944 -3760 944
WIRE -4784 976 -4784 816
WIRE -4784 976 -4816 976
WIRE -4736 976 -4784 976
WIRE -4640 976 -4672 976
WIRE -4544 976 -4576 976
WIRE -4384 1008 -4384 944
WIRE -3840 1008 -3840 944
WIRE -4784 1056 -4784 976
WIRE -4496 1056 -4496 992
WIRE -4496 1056 -4784 1056
WIRE -3856 1056 -3968 1056
WIRE -4384 1152 -4384 1072
WIRE -4384 1152 -4432 1152
WIRE -4064 1152 -4064 784
WIRE -4064 1152 -4384 1152
WIRE -3968 1152 -3968 1056
WIRE -3968 1152 -4064 1152
WIRE -3808 1152 -3808 1104
WIRE -3648 1152 -3648 448
WIRE -3648 1152 -3808 1152
FLAG -4448 480 input
IOPIN -4448 480 BiDir
FLAG -4640 480 0
FLAG -5088 144 0
FLAG -5200 -80 HT+400
IOPIN -5200 -80 Out
FLAG -4992 -96 input
IOPIN -4992 -96 BiDir
FLAG -4432 1152 output
IOPIN -4432 1152 Out
FLAG -4816 976 0
FLAG -4144 448 HT+400
IOPIN -4144 448 In
FLAG -4448 -240 output2
IOPIN -4448 -240 Out
FLAG -4816 -80 0
FLAG -4640 368 0
FLAG -4864 432 HT-130
IOPIN -4864 432 In
FLAG -5088 -80 HT-130
IOPIN -5088 -80 Out
FLAG -5296 -80 HT+280
IOPIN -5296 -80 Out
FLAG -3680 448 HT+280
IOPIN -3680 448 In
FLAG -3872 448 HT-130
IOPIN -3872 448 In
FLAG -3728 -48 CF2
IOPIN -3728 -48 Out
FLAG -3728 944 CF1
IOPIN -3728 944 Out
FLAG -4544 304 Cdiff
IOPIN -4544 304 In
SYMBOL res -4224 928 R90
WINDOW 0 0 56 VBottom 2
WINDOW 3 32 56 VTop 2
SYMATTR InstName R1
SYMATTR Value 41k
SYMBOL res -4208 688 M270
WINDOW 0 32 56 VTop 2
WINDOW 3 0 56 VBottom 2
SYMATTR InstName R2
SYMATTR Value 440K
SYMBOL res -4496 496 M270
WINDOW 0 32 56 VTop 2
WINDOW 3 0 56 VBottom 2
SYMATTR InstName R4
SYMATTR Value 10k
SYMBOL voltage -5200 -48 R0
WINDOW 123 0 0 Left 2
WINDOW 39 0 0 Left 2
SYMATTR InstName V1
SYMATTR Value 400
SYMBOL voltage -4992 -48 R0
WINDOW 123 24 44 Left 2
WINDOW 39 0 0 Left 2
SYMATTR Value2 AC 1 1
SYMATTR InstName V4
SYMATTR Value SINE(0 0.20 1k)
SYMBOL res -4464 608 R180
WINDOW 0 36 76 Left 2
WINDOW 3 36 40 Left 2
SYMATTR InstName R14
SYMATTR Value 1k
SYMBOL Misc\\6F12PEXCEM -4480 944 M270
SYMATTR InstName U4
SYMBOL Misc\\MJE340 -4320 752 R90
SYMATTR InstName U2
SYMBOL res -4560 800 R90
WINDOW 0 0 56 VBottom 2
WINDOW 3 32 56 VTop 2
SYMATTR InstName R6
SYMATTR Value 47K
SYMBOL res -4224 -32 M270
WINDOW 0 32 56 VTop 2
WINDOW 3 0 56 VBottom 2
SYMATTR InstName R7
SYMATTR Value 41K
SYMBOL res -4208 208 R90
WINDOW 0 0 56 VBottom 2
WINDOW 3 32 56 VTop 2
SYMATTR InstName R8
SYMATTR Value 440k
SYMBOL Misc\\6F12PEXCEM -4480 -48 R90
SYMATTR InstName U3
SYMBOL Misc\\MJE340 -4320 144 M270
SYMATTR InstName U6
SYMBOL res -4560 96 M270
WINDOW 0 32 56 VTop 2
WINDOW 3 0 56 VBottom 2
SYMATTR InstName R11
SYMATTR Value 47K
SYMBOL res -4608 384 R270
WINDOW 0 32 56 VTop 2
WINDOW 3 0 56 VBottom 2
SYMATTR InstName R5
SYMATTR Value 1k
SYMBOL res -4720 416 R90
WINDOW 0 0 56 VBottom 2
WINDOW 3 32 56 VTop 2
SYMATTR InstName R10
SYMATTR Value 120K
SYMBOL diode -4576 -96 R90
WINDOW 0 0 32 VBottom 2
WINDOW 3 32 32 VTop 2
SYMATTR InstName D2
SYMATTR Value UF4007
SYMBOL diode -4576 960 R90
WINDOW 0 0 32 VBottom 2
WINDOW 3 32 32 VTop 2
SYMATTR InstName D3
SYMATTR Value UF4007
SYMBOL cap -4368 1072 R180
WINDOW 0 24 56 Left 2
WINDOW 3 24 8 Left 2
SYMATTR InstName C1
SYMATTR Value 1u
SYMATTR SpiceLine V=100 Irms=4.58 Rser=0.025 Lser=0 mfg="KEMET" pn="C2225C105K1RAC" type="X7R"
SYMBOL cap -4368 -112 R180
WINDOW 0 24 56 Left 2
WINDOW 3 24 8 Left 2
SYMATTR InstName C2
SYMATTR Value 1u
SYMATTR SpiceLine V=100 Irms=4.58 Rser=0.025 Lser=0 mfg="KEMET" pn="C2225C105K1RAC" type="X7R"
SYMBOL res -4048 800 R180
WINDOW 0 36 76 Left 2
WINDOW 3 36 40 Left 2
SYMATTR InstName R3
SYMATTR Value 470K
SYMBOL res -4048 128 R180
WINDOW 0 36 76 Left 2
WINDOW 3 36 40 Left 2
SYMATTR InstName R9
SYMATTR Value 470K
SYMBOL voltage -5088 64 M180
WINDOW 0 24 96 Left 2
WINDOW 3 24 16 Left 2
WINDOW 123 0 0 Left 2
WINDOW 39 0 0 Left 2
SYMATTR InstName V3
SYMATTR Value 135
SYMBOL voltage -5296 -48 R0
WINDOW 123 0 0 Left 2
WINDOW 39 0 0 Left 2
SYMATTR InstName V5
SYMATTR Value 280
SYMBOL res -3856 256 R0
SYMATTR InstName R15
SYMATTR Value 56K
SYMBOL res -3856 512 R0
SYMATTR InstName R16
SYMATTR Value 56K
SYMBOL res -3856 96 R0
SYMATTR InstName R17
SYMATTR Value 470
SYMBOL res -3856 656 R0
SYMATTR InstName R18
SYMATTR Value 470
SYMBOL res -3776 -48 R0
SYMATTR InstName R19
SYMATTR Value 560
SYMBOL res -3776 800 R0
SYMATTR InstName R20
SYMATTR Value 560
SYMBOL Misc\\potentiometre -3824 64 R180
SYMATTR InstName U9
SYMATTR Value Rtot=500 wiper=.5
SYMBOL Misc\\potentiometre -3824 912 R180
SYMATTR InstName U10
SYMATTR Value Rtot=500 wiper=.5
SYMBOL Misc\\6N2P_philbob -4480 672 R90
SYMATTR InstName U1
SYMBOL Misc\\6N2P_philbob -4480 224 M270
SYMATTR InstName U5
SYMBOL Misc\\6F12T_philbob -3808 -144 R0
WINDOW 3 -83 64 Left 2
SYMATTR InstName U7
SYMBOL Misc\\6F12T_philbob -3808 1056 M180
WINDOW 3 -81 70 Left 2
SYMATTR InstName U8
SYMBOL diode -4672 -96 R90
WINDOW 0 0 32 VBottom 2
WINDOW 3 32 32 VTop 2
SYMATTR InstName D7
SYMATTR Value UF4007
SYMBOL diode -4672 960 R90
WINDOW 0 0 32 VBottom 2
WINDOW 3 32 32 VTop 2
SYMATTR InstName D8
SYMATTR Value UF4007
TEXT -4184 352 Right 2 !.Fourrier 1000 V(output)
TEXT -4448 288 Left 2 !.tran 5m
TEXT -4456 416 Left 2 !.Fourrier 1000 V(CF1)
TEXT -4448 320 Left 2 !;ac oct 1000 1 1MEG
TEXT -4456 448 Left 2 !.Fourrier 1000 V(CF2)
TEXT -5192 600 Left 2 ;Copyleft 2014
TEXT -5192 656 Left 2 ;Yves MONMAGNON
TEXT -5192 680 Left 2 ;Christophe DEDESSUS LES MOUTIER
TEXT -5192 704 Left 2 ;Grégoire HUBERT
TEXT -5192 736 Left 2 ;License CC by SA
TEXT -5192 768 Left 2 ;www.audiyofan.org
TEXT -5192 632 Left 2 ;Arnaud HAEGELE
TEXT -4456 384 Left 2 !.Fourrier 1000 V(output2)
