Version 4
SHEET 1 2332 952
WIRE -608 -192 -608 -224
WIRE -608 -192 -672 -192
WIRE -560 -192 -608 -192
WIRE 112 -176 112 -256
WIRE 112 -176 -480 -176
WIRE 304 -176 112 -176
WIRE 704 -176 304 -176
WIRE 704 -160 704 -176
WIRE -672 -144 -672 -192
WIRE -560 -144 -560 -192
WIRE -480 -144 -480 -176
WIRE 112 -112 112 -176
WIRE 304 -96 304 -176
WIRE 800 -80 752 -80
WIRE 704 -48 704 -64
WIRE -672 -16 -672 -64
WIRE -592 -16 -672 -16
WIRE -560 -16 -560 -64
WIRE -560 -16 -592 -16
WIRE -480 -16 -480 -64
WIRE 656 16 608 16
WIRE -592 32 -592 -16
WIRE -384 32 -432 32
WIRE -192 32 -384 32
WIRE 112 32 112 -32
WIRE 112 32 -128 32
WIRE 800 48 800 -80
WIRE 800 48 704 48
WIRE -384 64 -384 32
WIRE 304 80 304 -16
WIRE 112 96 112 32
WIRE 208 128 208 64
WIRE 256 128 208 128
WIRE -80 144 -128 144
WIRE -48 144 -80 144
WIRE 64 144 32 144
WIRE 432 144 352 144
WIRE 496 144 432 144
WIRE 704 144 704 48
WIRE 704 144 560 144
WIRE -448 160 -448 80
WIRE 704 160 704 144
WIRE -384 176 -384 144
WIRE -80 176 -80 144
WIRE 432 192 432 144
WIRE 80 256 80 192
WIRE 208 256 80 256
WIRE 336 256 336 192
WIRE 336 256 208 256
WIRE 608 256 608 16
WIRE 704 256 704 240
WIRE 704 256 608 256
WIRE 768 256 704 256
WIRE 864 256 832 256
WIRE 992 256 944 256
WIRE -80 304 -80 256
WIRE 208 320 208 256
WIRE 432 320 432 272
WIRE 704 352 704 256
WIRE 560 400 480 400
WIRE 656 400 560 400
WIRE 320 448 320 400
WIRE 208 480 208 400
WIRE 672 480 672 448
WIRE 800 480 672 480
WIRE 880 480 800 480
WIRE 976 480 960 480
WIRE 1008 480 976 480
WIRE 400 496 400 400
WIRE 480 496 480 400
WIRE 560 496 560 400
WIRE 672 496 672 480
WIRE -480 512 -480 448
WIRE -384 512 -384 448
WIRE -288 512 -288 448
WIRE -144 512 -144 448
WIRE 800 560 800 480
WIRE 816 560 800 560
WIRE 976 560 976 480
WIRE 976 560 880 560
WIRE 208 592 208 560
WIRE 400 608 400 560
WIRE 464 608 400 608
WIRE 480 608 480 560
WIRE 480 608 464 608
WIRE 560 608 560 576
WIRE 560 608 480 608
WIRE 672 608 672 576
WIRE 672 608 560 608
WIRE -480 640 -480 592
WIRE -384 640 -384 592
WIRE -384 640 -480 640
WIRE -288 640 -288 592
WIRE -288 640 -384 640
WIRE -144 640 -144 592
WIRE -144 640 -288 640
WIRE 464 656 464 608
WIRE -288 688 -288 640
FLAG 112 -256 HT+400
IOPIN 112 -256 In
FLAG 208 64 HT+150
IOPIN 208 64 In
FLAG 432 320 0
FLAG -128 144 input
IOPIN -128 144 BiDir
FLAG -80 304 0
FLAG 320 448 input
IOPIN 320 448 BiDir
FLAG 464 656 0
FLAG -288 688 0
FLAG -480 448 HT+400
IOPIN -480 448 Out
FLAG -384 448 HT+150
IOPIN -384 448 Out
FLAG -288 448 HTNEG
IOPIN -288 448 In
FLAG -144 448 input
IOPIN -144 448 BiDir
FLAG 1008 480 output
IOPIN 1008 480 BiDir
FLAG -448 160 0
FLAG -608 -224 0
FLAG -592 32 output
IOPIN -592 32 BiDir
FLAG -384 176 HTNEG
IOPIN -384 176 Out
FLAG 992 256 0
FLAG 208 592 0
SYMBOL res 288 -112 R0
SYMATTR InstName R1
SYMATTR Value 15k
SYMBOL res 128 -128 M0
SYMATTR InstName R2
SYMATTR Value 41k
SYMBOL res 416 176 R0
SYMATTR InstName R3
SYMATTR Value 1MEG
SYMBOL cap 496 160 R270
WINDOW 0 32 32 VTop 2
WINDOW 3 0 32 VBottom 2
SYMATTR InstName C1
SYMATTR Value 150n
SYMBOL res -64 160 M0
SYMATTR InstName R4
SYMATTR Value 10k
SYMBOL cap 384 496 R0
SYMATTR InstName C3
SYMATTR Value 100p
SYMBOL cap 464 496 R0
SYMATTR InstName C4
SYMATTR Value 331p
SYMBOL res 544 480 R0
SYMATTR InstName R7
SYMATTR Value 470k
SYMBOL res 496 384 R90
WINDOW 0 0 56 VBottom 2
WINDOW 3 32 56 VTop 2
SYMATTR InstName R8
SYMATTR Value 1k
SYMBOL res 416 384 R90
WINDOW 0 0 56 VBottom 2
WINDOW 3 32 56 VTop 2
SYMATTR InstName R9
SYMATTR Value 1k
SYMBOL res 656 480 R0
SYMATTR InstName R10
SYMATTR Value 470
SYMBOL voltage -480 496 R0
WINDOW 123 0 0 Left 2
WINDOW 39 0 0 Left 2
SYMATTR InstName V1
SYMATTR Value 400
SYMBOL voltage -384 496 R0
WINDOW 123 0 0 Left 2
WINDOW 39 0 0 Left 2
SYMATTR InstName V2
SYMATTR Value 150
SYMBOL voltage -288 608 M180
WINDOW 0 24 96 Left 2
WINDOW 3 24 16 Left 2
WINDOW 123 0 0 Left 2
WINDOW 39 0 0 Left 2
SYMATTR InstName V3
SYMATTR Value 79
SYMBOL voltage -144 496 R0
WINDOW 123 24 44 Left 2
WINDOW 39 0 0 Left 2
SYMATTR Value2 AC 1 1
SYMATTR InstName V4
SYMATTR Value SINE(0 0.37 1k)
SYMBOL res 864 496 R270
WINDOW 0 32 56 VTop 2
WINDOW 3 0 56 VBottom 2
SYMATTR InstName R11
SYMATTR Value 4400
SYMBOL cap 880 544 R90
WINDOW 0 0 32 VBottom 2
WINDOW 3 32 32 VTop 2
SYMATTR InstName C5
SYMATTR Value 100p
SYMBOL ind2 -464 -160 M0
WINDOW 0 -26 37 Left 2
WINDOW 3 -28 82 Left 2
SYMATTR InstName L1
SYMATTR Value 46
SYMATTR Type ind
SYMATTR SpiceLine Rser=185 Cpar=296p
SYMBOL ind2 -576 -160 R0
WINDOW 0 -27 35 Left 2
WINDOW 3 -61 60 Left 2
SYMATTR InstName L2
SYMATTR Value 0.0368
SYMATTR Type ind
SYMATTR SpiceLine Rser=0.3
SYMBOL res -656 -160 M0
SYMATTR InstName R15
SYMATTR Value 8
SYMBOL res -400 48 R0
SYMATTR InstName R12
SYMATTR Value 470k
SYMBOL cap -128 48 M270
WINDOW 0 32 32 VTop 2
WINDOW 3 0 32 VBottom 2
SYMATTR InstName C6
SYMATTR Value 1u
SYMBOL nmos 752 -160 M0
SYMATTR InstName M1
SYMATTR Value DN2535
SYMBOL res 688 144 R0
SYMATTR InstName R5
SYMATTR Value 100
SYMBOL cap 832 240 R90
WINDOW 0 0 32 VBottom 2
WINDOW 3 32 32 VTop 2
SYMATTR InstName C2
SYMATTR Value 2.2n
SYMBOL res 960 240 R90
WINDOW 0 0 56 VBottom 2
WINDOW 3 32 56 VTop 2
SYMATTR InstName R6
SYMATTR Value 2.2k
SYMBOL njf 656 -48 R0
SYMATTR InstName J1
SYMATTR Value BF245C
SYMBOL res 192 304 R0
SYMATTR InstName R13
SYMATTR Value 4.1k
SYMBOL res 48 128 R90
WINDOW 0 0 56 VBottom 2
WINDOW 3 32 56 VTop 2
SYMATTR InstName R14
SYMATTR Value 1k
SYMBOL voltage 208 576 M180
WINDOW 0 24 96 Left 2
WINDOW 3 24 16 Left 2
WINDOW 123 0 0 Left 2
WINDOW 39 0 0 Left 2
SYMATTR InstName V5
SYMATTR Value 90
SYMBOL Misc\\6F12PEXCEM 304 128 M0
SYMATTR InstName U4
SYMBOL Misc\\6F12T_philbob 112 144 R0
SYMATTR InstName U1
SYMBOL Misc\\6N3P 704 400 R0
SYMATTR InstName U3
SYMBOL Misc\\EL360 -480 32 M0
SYMATTR InstName U2
TEXT 264 -272 Left 2 !.tran 10m
TEXT -752 -312 Left 2 !K L1 L2 0.99977179122156898969
TEXT 264 -232 Left 2 !.Fourrier 1000 V(output)
TEXT 264 -208 Left 2 !.measure OUTPUT_POWER_RMS RMS(V(output))*I(R15)
TEXT 264 -304 Left 2 !;ac oct 1000 1 1MEG
LINE Normal -512 -48 -512 -160
LINE Normal -528 -48 -528 -160
