Version 4
SHEET 1 2332 952
WIRE 112 -176 112 -256
WIRE 256 -176 112 -176
WIRE 384 -176 256 -176
WIRE -336 -112 -336 -176
WIRE -160 -112 -160 -176
WIRE 112 -112 112 -176
WIRE 384 -96 384 -176
WIRE 256 -16 256 -176
WIRE -336 16 -336 -32
WIRE -240 16 -336 16
WIRE -160 16 -160 -32
WIRE -160 16 -240 16
WIRE 112 32 112 -32
WIRE 192 32 112 32
WIRE 384 48 384 -16
WIRE 416 48 384 48
WIRE -240 64 -240 16
WIRE 112 96 112 32
WIRE 384 96 384 48
WIRE -80 144 -128 144
WIRE -48 144 -80 144
WIRE 64 144 32 144
WIRE 256 144 256 80
WIRE 336 144 256 144
WIRE 496 160 432 160
WIRE -80 176 -80 144
WIRE 256 240 256 144
WIRE 80 256 80 192
WIRE 416 256 416 208
WIRE -80 304 -80 256
WIRE 256 352 256 320
WIRE 416 352 416 336
WIRE 416 352 256 352
WIRE 496 352 496 160
WIRE 496 352 416 352
WIRE 80 384 80 336
WIRE 416 384 416 352
FLAG 112 -256 HT+400
IOPIN 112 -256 In
FLAG -128 144 input
IOPIN -128 144 BiDir
FLAG -80 304 0
FLAG -240 64 0
FLAG -336 -176 HT+400
IOPIN -336 -176 Out
FLAG -160 -176 input
IOPIN -160 -176 BiDir
FLAG 416 48 output
IOPIN 416 48 BiDir
FLAG 80 384 0
FLAG 416 384 0
SYMBOL res 368 -112 R0
SYMATTR InstName R1
SYMATTR Value 22k
SYMBOL res 128 -128 M0
SYMATTR InstName R2
SYMATTR Value 47k
SYMBOL res -64 160 M0
SYMATTR InstName R4
SYMATTR Value 10k
SYMBOL voltage -336 -128 R0
WINDOW 123 0 0 Left 2
WINDOW 39 0 0 Left 2
SYMATTR InstName V1
SYMATTR Value 400
SYMBOL voltage -160 -128 R0
WINDOW 123 24 44 Left 2
WINDOW 39 0 0 Left 2
SYMATTR Value2 AC 1 1
SYMATTR InstName V4
SYMATTR Value SINE(0 0.5 1k)
SYMBOL res 48 128 R90
WINDOW 0 0 56 VBottom 2
WINDOW 3 32 56 VTop 2
SYMATTR InstName R14
SYMATTR Value 1k
SYMBOL Misc\\6F12PEXCEM 384 144 M0
SYMATTR InstName U4
SYMBOL Misc\\6F12T_philbob 112 144 R0
SYMATTR InstName U1
SYMBOL Misc\\MJE340 192 -16 R0
SYMATTR InstName U2
SYMBOL res 400 240 R0
SYMATTR InstName R3
SYMATTR Value 91
SYMBOL res 64 240 R0
SYMATTR InstName R5
SYMATTR Value 220
SYMBOL res 240 224 R0
SYMATTR InstName R6
SYMATTR Value 47K
TEXT 264 -272 Left 2 !.tran 10m
TEXT 264 -232 Left 2 !.Fourrier 1000 V(output)
TEXT 264 -304 Left 2 !;ac oct 1000 1 1MEG
TEXT 592 -80 Left 2 ;Copyleft 2014
TEXT 592 -24 Left 2 ;Yves MONMAGNON
TEXT 592 0 Left 2 ;Christophe DEDESSUS LES MOUTIER
TEXT 592 24 Left 2 ;Grégoire HUBERT
TEXT 592 56 Left 2 ;License CC by SA
TEXT 592 88 Left 2 ;www.audiyofan.org
TEXT 592 -48 Left 2 ;Arnaud HAEGELE
